 
data_1b
 
_audit_creation_method            SHELXL-2014/6
_chemical_name_systematic         ?
_chemical_name_common             ?
_chemical_melting_point           ?
_chemical_formula_moiety          ?
_chemical_formula_sum
 'C8 H25 Al0.84 Ga1.16 N3' 
_chemical_formula_weight          266.85

loop_
 _atom_type_symbol
 _atom_type_description
 _atom_type_scat_dispersion_real
 _atom_type_scat_dispersion_imag
 _atom_type_scat_source
 'C'  'C'   0.0033   0.0016
 'International Tables Vol C Tables 4.2.6.8 and 6.1.1.4'
 'H'  'H'   0.0000   0.0000
 'International Tables Vol C Tables 4.2.6.8 and 6.1.1.4'
 'N'  'N'   0.0061   0.0033
 'International Tables Vol C Tables 4.2.6.8 and 6.1.1.4'
 'Al'  'Al'   0.0645   0.0514
 'International Tables Vol C Tables 4.2.6.8 and 6.1.1.4'
 'Ga'  'Ga'   0.2307   1.6083
 'International Tables Vol C Tables 4.2.6.8 and 6.1.1.4'
 
_space_group_crystal_system       orthorhombic
_space_group_IT_number            19
_space_group_name_H-M_alt         'P 21 21 21'
_space_group_name_Hall            'P 2ac 2ab'
 
_shelx_space_group_comment
;
The symmetry employed for this shelxl refinement is uniquely defined
by the following loop, which should always be used as a source of
symmetry information in preference to the above space-group names.
They are only intended as comments.
;
 
loop_
 _space_group_symop_operation_xyz
 'x, y, z'
 '-x+1/2, -y, z+1/2'
 '-x, y+1/2, -z+1/2'
 'x+1/2, -y+1/2, -z'
 
_cell_length_a                    6.2256(8)
_cell_length_b                    12.9136(15)
_cell_length_c                    17.444(2)
_cell_angle_alpha                 90
_cell_angle_beta                  90
_cell_angle_gamma                 90
_cell_volume                      1402.4(3)
_cell_formula_units_Z             4
_cell_measurement_temperature     173(2)
_cell_measurement_reflns_used     ?
_cell_measurement_theta_min       ?
_cell_measurement_theta_max       ?
 
_exptl_crystal_description        ?
_exptl_crystal_colour             ?
_exptl_crystal_density_meas       ?
_exptl_crystal_density_method     ?
_exptl_crystal_density_diffrn     1.264          
_exptl_crystal_F_000              564
_exptl_transmission_factor_min    ?
_exptl_transmission_factor_max    ?
_exptl_crystal_size_max           0.400
_exptl_crystal_size_mid           0.300
_exptl_crystal_size_min           0.200
_exptl_absorpt_coefficient_mu     2.286
_shelx_estimated_absorpt_T_min    0.462
_shelx_estimated_absorpt_T_max    0.658
_exptl_absorpt_correction_type    ?
_exptl_absorpt_correction_T_min   ?
_exptl_absorpt_correction_T_max   ?
_exptl_absorpt_process_details    ?
_exptl_absorpt_special_details    ?
_diffrn_ambient_temperature       173(2)
_diffrn_radiation_wavelength      0.71073
_diffrn_radiation_type            MoK\a
_diffrn_source                    ?
_diffrn_measurement_device_type   ?
_diffrn_measurement_method        ?
_diffrn_detector_area_resol_mean  ?
_diffrn_reflns_number             13109
_diffrn_reflns_av_unetI/netI      0.0199
_diffrn_reflns_av_R_equivalents   0.0293
_diffrn_reflns_limit_h_min        -7
_diffrn_reflns_limit_h_max        7
_diffrn_reflns_limit_k_min        -15
_diffrn_reflns_limit_k_max        15
_diffrn_reflns_limit_l_min        -20
_diffrn_reflns_limit_l_max        20
_diffrn_reflns_theta_min          1.962
_diffrn_reflns_theta_max          25.040
_diffrn_reflns_theta_full         25.242
_diffrn_measured_fraction_theta_max   1.000
_diffrn_measured_fraction_theta_full  0.977
_diffrn_reflns_Laue_measured_fraction_max    1.000
_diffrn_reflns_Laue_measured_fraction_full   0.977
_diffrn_reflns_point_group_measured_fraction_max   1.000
_diffrn_reflns_point_group_measured_fraction_full  0.974
_reflns_number_total              2482
_reflns_number_gt                 2334
_reflns_threshold_expression      'I > 2\s(I)'
_reflns_Friedel_coverage          0.698
_reflns_Friedel_fraction_max      1.000
_reflns_Friedel_fraction_full     0.971
 
_reflns_special_details
;
 Reflections were merged by SHELXL according to the crystal
 class for the calculation of statistics and refinement.
 
 _reflns_Friedel_fraction is defined as the number of unique
 Friedel pairs measured divided by the number that would be
 possible theoretically, ignoring centric projections and
 systematic absences.
;
 
_computing_data_collection        ?
_computing_cell_refinement        ?
_computing_data_reduction         ?
_computing_structure_solution     ?
_computing_structure_refinement 'SHELXL-2014/6 (Sheldrick, 2014)'
_computing_molecular_graphics     ?
_computing_publication_material   ?
_refine_special_details
;
 Refined as a 2-component inversion twin.
;
_refine_ls_structure_factor_coef  Fsqd
_refine_ls_matrix_type            full
_refine_ls_weighting_scheme       calc
_refine_ls_weighting_details
'w=1/[\s^2^(Fo^2^)+(0.0271P)^2^+0.2580P] where P=(Fo^2^+2Fc^2^)/3'
_atom_sites_solution_primary      ?
_atom_sites_solution_secondary    ?
_atom_sites_solution_hydrogens    mixed
_refine_ls_hydrogen_treatment     mixed
_refine_ls_extinction_method      none
_refine_ls_extinction_coef        .
_refine_ls_abs_structure_details
;
 Refined as an inversion twin.
;
_refine_ls_abs_structure_Flack    0.435(15)
_chemical_absolute_configuration  ?
_refine_ls_number_reflns          2482
_refine_ls_number_parameters      142
_refine_ls_number_restraints      8
_refine_ls_R_factor_all           0.0237
_refine_ls_R_factor_gt            0.0204
_refine_ls_wR_factor_ref          0.0504
_refine_ls_wR_factor_gt           0.0490
_refine_ls_goodness_of_fit_ref    1.044
_refine_ls_restrained_S_all       1.044
_refine_ls_shift/su_max           0.017
_refine_ls_shift/su_mean          0.002
 
loop_
 _atom_site_label
 _atom_site_type_symbol
 _atom_site_fract_x
 _atom_site_fract_y
 _atom_site_fract_z
 _atom_site_U_iso_or_equiv
 _atom_site_adp_type
 _atom_site_occupancy
 _atom_site_site_symmetry_order  
 _atom_site_calc_flag
 _atom_site_refinement_flags_posn
 _atom_site_refinement_flags_adp
 _atom_site_refinement_flags_occupancy
 _atom_site_disorder_assembly
 _atom_site_disorder_group
Al1 Al 0.2398(12) 0.4290(9) 0.0350(5) 0.0260(8) Uani 0.844(2) 1 d D . P A 1
Ga1 Ga 0.254(3) 0.4339(18) 0.0443(11) 0.0260(8) Uani 0.156(2) 1 d D . P A 2
H1' H 0.014(3) 0.440(2) 0.0373(16) 0.031 Uiso 1 1 d D U . . .
H2' H 0.366(4) 0.3612(19) -0.0094(15) 0.031 Uiso 1 1 d D U . . .
Ga2 Ga 0.20888(6) 0.61248(3) 0.17694(2) 0.04468(13) Uani 1 1 d D . . . .
H3' H 0.357(4) 0.620(2) 0.2395(14) 0.054 Uiso 1 1 d D U . . .
H4' H 0.154(4) 0.7110(17) 0.1457(17) 0.054 Uiso 1 1 d D U . . .
H5' H 0.027(4) 0.551(2) 0.1970(16) 0.054 Uiso 1 1 d D U . . .
N1 N 0.3043(4) 0.55591(18) -0.04642(13) 0.0375(5) Uani 1 1 d . . . . .
N2 N 0.4030(4) 0.52312(18) 0.10749(14) 0.0314(5) Uani 1 1 d . . . . .
N3 N 0.2682(4) 0.32177(17) 0.13327(12) 0.0328(5) Uani 1 1 d . . . . .
C1 C 0.1045(6) 0.5938(3) -0.0822(2) 0.0544(9) Uani 1 1 d . . . . .
H1A H 0.1380 0.6511 -0.1170 0.082 Uiso 1 1 calc R U . . .
H1B H 0.0059 0.6180 -0.0422 0.082 Uiso 1 1 calc R U . . .
H1C H 0.0369 0.5375 -0.1110 0.082 Uiso 1 1 calc R U . . .
C2 C 0.4517(7) 0.5194(3) -0.1073(2) 0.0579(10) Uani 1 1 d . . . . .
H2A H 0.4782 0.5757 -0.1437 0.087 Uiso 1 1 calc R U . . .
H2B H 0.3865 0.4607 -0.1342 0.087 Uiso 1 1 calc R U . . .
H2C H 0.5879 0.4976 -0.0842 0.087 Uiso 1 1 calc R U . . .
C3 C 0.4086(5) 0.6396(2) -0.00213(18) 0.0415(7) Uani 1 1 d . . . . .
H3A H 0.2980 0.6861 0.0197 0.050 Uiso 1 1 calc R U . . .
H3B H 0.5020 0.6811 -0.0363 0.050 Uiso 1 1 calc R U . . .
C4 C 0.5411(5) 0.5931(3) 0.06152(18) 0.0419(7) Uani 1 1 d . . . . .
H4A H 0.6631 0.5537 0.0397 0.050 Uiso 1 1 calc R U . . .
H4B H 0.5996 0.6487 0.0945 0.050 Uiso 1 1 calc R U . . .
C5 C 0.5383(5) 0.4558(3) 0.15634(18) 0.0406(8) Uani 1 1 d . . . . .
H5A H 0.6099 0.4976 0.1964 0.049 Uiso 1 1 calc R U . . .
H5B H 0.6504 0.4219 0.1249 0.049 Uiso 1 1 calc R U . . .
C6 C 0.3965(5) 0.3749(2) 0.19306(15) 0.0377(7) Uani 1 1 d . . . . .
H6A H 0.4863 0.3238 0.2207 0.045 Uiso 1 1 calc R U . . .
H6B H 0.2994 0.4082 0.2306 0.045 Uiso 1 1 calc R U . . .
C7 C 0.0556(6) 0.2903(3) 0.16437(19) 0.0485(8) Uani 1 1 d . . . . .
H7A H 0.0765 0.2429 0.2076 0.073 Uiso 1 1 calc R U . . .
H7B H -0.0273 0.2555 0.1242 0.073 Uiso 1 1 calc R U . . .
H7C H -0.0224 0.3518 0.1818 0.073 Uiso 1 1 calc R U . . .
C8 C 0.3810(6) 0.2271(2) 0.1066(2) 0.0518(9) Uani 1 1 d . . . . .
H8A H 0.3847 0.1761 0.1482 0.078 Uiso 1 1 calc R U . . .
H8B H 0.5281 0.2449 0.0916 0.078 Uiso 1 1 calc R U . . .
H8C H 0.3046 0.1979 0.0626 0.078 Uiso 1 1 calc R U . . .
 
loop_
 _atom_site_aniso_label
 _atom_site_aniso_U_11
 _atom_site_aniso_U_22
 _atom_site_aniso_U_33
 _atom_site_aniso_U_23
 _atom_site_aniso_U_13
 _atom_site_aniso_U_12
Al1 0.0313(10) 0.0283(11) 0.019(2) -0.0054(13) -0.0038(11) -0.0005(9)
Ga1 0.0313(10) 0.0283(11) 0.019(2) -0.0054(13) -0.0038(11) -0.0005(9)
Ga2 0.0560(2) 0.04134(19) 0.03668(18) -0.01090(15) 0.00271(16) 0.00680(16)
N1 0.0494(14) 0.0347(12) 0.0284(11) -0.0009(10) 0.0043(12) 0.0010(12)
N2 0.0296(12) 0.0326(13) 0.0320(13) -0.0006(10) -0.0034(10) -0.0003(10)
N3 0.0374(14) 0.0311(11) 0.0299(12) -0.0004(9) -0.0014(11) 0.0032(11)
C1 0.070(2) 0.050(2) 0.0428(19) 0.0071(16) -0.0139(16) 0.0044(18)
C2 0.083(3) 0.051(2) 0.040(2) 0.0007(17) 0.0231(19) 0.002(2)
C3 0.0526(19) 0.0346(16) 0.0374(17) 0.0024(14) 0.0062(14) -0.0099(13)
C4 0.0395(16) 0.0421(19) 0.0441(18) 0.0002(15) 0.0036(13) -0.0095(14)
C5 0.0326(15) 0.0443(19) 0.0449(19) 0.0005(14) -0.0119(13) 0.0032(14)
C6 0.0437(16) 0.0408(18) 0.0285(15) 0.0019(13) -0.0095(12) 0.0077(14)
C7 0.0475(19) 0.054(2) 0.044(2) 0.0113(17) 0.0041(15) -0.0074(16)
C8 0.073(2) 0.0327(17) 0.0501(19) 0.0002(15) -0.0026(18) 0.0157(16)
 
_geom_special_details
;
 All esds (except the esd in the dihedral angle between two l.s. planes)
 are estimated using the full covariance matrix.  The cell esds are taken
 into account individually in the estimation of esds in distances, angles
 and torsion angles; correlations between esds in cell parameters are only
 used when they are defined by crystal symmetry.  An approximate (isotropic)
 treatment of cell esds is used for estimating esds involving l.s. planes.
;
 
loop_
 _geom_bond_atom_site_label_1
 _geom_bond_atom_site_label_2
 _geom_bond_distance
 _geom_bond_site_symmetry_2
 _geom_bond_publ_flag
Al1 N2 2.027(9) . ?
Al1 N1 2.205(12) . ?
Al1 N3 2.211(11) . ?
Al1 H1' 1.41(2) . ?
Al1 H2' 1.41(2) . ?
Ga1 N2 1.85(2) . ?
Ga1 N3 2.12(2) . ?
Ga1 N1 2.25(2) . ?
Ga1 H1' 1.50(3) . ?
Ga1 H2' 1.50(2) . ?
Ga2 N2 2.064(2) . ?
Ga2 H3' 1.43(2) . ?
Ga2 H4' 1.43(2) . ?
Ga2 H5' 1.43(2) . ?
N1 C1 1.475(4) . ?
N1 C3 1.479(4) . ?
N1 C2 1.480(4) . ?
N2 C5 1.480(4) . ?
N2 C4 1.482(4) . ?
N3 C6 1.482(4) . ?
N3 C8 1.484(4) . ?
N3 C7 1.487(4) . ?
C1 H1A 0.9800 . ?
C1 H1B 0.9800 . ?
C1 H1C 0.9800 . ?
C2 H2A 0.9800 . ?
C2 H2B 0.9800 . ?
C2 H2C 0.9800 . ?
C3 C4 1.508(4) . ?
C3 H3A 0.9900 . ?
C3 H3B 0.9900 . ?
C4 H4A 0.9900 . ?
C4 H4B 0.9900 . ?
C5 C6 1.509(5) . ?
C5 H5A 0.9900 . ?
C5 H5B 0.9900 . ?
C6 H6A 0.9900 . ?
C6 H6B 0.9900 . ?
C7 H7A 0.9800 . ?
C7 H7B 0.9800 . ?
C7 H7C 0.9800 . ?
C8 H8A 0.9800 . ?
C8 H8B 0.9800 . ?
C8 H8C 0.9800 . ?
 
loop_
 _geom_angle_atom_site_label_1
 _geom_angle_atom_site_label_2
 _geom_angle_atom_site_label_3
 _geom_angle
 _geom_angle_site_symmetry_1
 _geom_angle_site_symmetry_3
 _geom_angle_publ_flag
N2 Al1 N1 82.3(4) . . ?
N2 Al1 N3 81.5(3) . . ?
N1 Al1 N3 161.9(4) . . ?
N2 Al1 H1' 114.8(12) . . ?
N1 Al1 H1' 97.0(13) . . ?
N3 Al1 H1' 97.1(13) . . ?
N2 Al1 H2' 115.9(12) . . ?
N1 Al1 H2' 90.4(12) . . ?
N3 Al1 H2' 89.5(12) . . ?
H1' Al1 H2' 129.4(17) . . ?
N2 Ga1 N3 88.2(8) . . ?
N2 Ga1 N1 85.0(10) . . ?
N3 Ga1 N1 169.5(9) . . ?
N2 Ga1 H1' 121.0(15) . . ?
N3 Ga1 H1' 98.0(16) . . ?
N1 Ga1 H1' 92.4(15) . . ?
N2 Ga1 H2' 122.0(14) . . ?
N3 Ga1 H2' 90.6(15) . . ?
N1 Ga1 H2' 86.3(14) . . ?
H1' Ga1 H2' 117(2) . . ?
N2 Ga2 H3' 96.0(13) . . ?
N2 Ga2 H4' 114.5(13) . . ?
H3' Ga2 H4' 112.9(12) . . ?
N2 Ga2 H5' 107.2(13) . . ?
H3' Ga2 H5' 111.1(11) . . ?
H4' Ga2 H5' 113.8(12) . . ?
C1 N1 C3 110.4(2) . . ?
C1 N1 C2 109.0(3) . . ?
C3 N1 C2 109.6(3) . . ?
C1 N1 Al1 111.4(3) . . ?
C3 N1 Al1 106.6(3) . . ?
C2 N1 Al1 109.8(3) . . ?
C1 N1 Ga1 114.3(4) . . ?
C3 N1 Ga1 101.8(5) . . ?
C2 N1 Ga1 111.5(4) . . ?
C5 N2 C4 109.9(2) . . ?
C5 N2 Ga1 105.3(7) . . ?
C4 N2 Ga1 110.4(7) . . ?
C5 N2 Al1 107.0(3) . . ?
C4 N2 Al1 108.6(4) . . ?
C5 N2 Ga2 108.88(18) . . ?
C4 N2 Ga2 108.45(18) . . ?
Ga1 N2 Ga2 113.9(4) . . ?
Al1 N2 Ga2 114.1(2) . . ?
C6 N3 C8 110.3(2) . . ?
C6 N3 C7 110.5(2) . . ?
C8 N3 C7 108.1(3) . . ?
C6 N3 Ga1 102.8(6) . . ?
C8 N3 Ga1 110.6(4) . . ?
C7 N3 Ga1 114.6(5) . . ?
C6 N3 Al1 107.4(3) . . ?
C8 N3 Al1 108.1(3) . . ?
C7 N3 Al1 112.5(3) . . ?
N1 C1 H1A 109.5 . . ?
N1 C1 H1B 109.5 . . ?
H1A C1 H1B 109.5 . . ?
N1 C1 H1C 109.5 . . ?
H1A C1 H1C 109.5 . . ?
H1B C1 H1C 109.5 . . ?
N1 C2 H2A 109.5 . . ?
N1 C2 H2B 109.5 . . ?
H2A C2 H2B 109.5 . . ?
N1 C2 H2C 109.5 . . ?
H2A C2 H2C 109.5 . . ?
H2B C2 H2C 109.5 . . ?
N1 C3 C4 109.5(2) . . ?
N1 C3 H3A 109.8 . . ?
C4 C3 H3A 109.8 . . ?
N1 C3 H3B 109.8 . . ?
C4 C3 H3B 109.8 . . ?
H3A C3 H3B 108.2 . . ?
N2 C4 C3 108.9(2) . . ?
N2 C4 H4A 109.9 . . ?
C3 C4 H4A 109.9 . . ?
N2 C4 H4B 109.9 . . ?
C3 C4 H4B 109.9 . . ?
H4A C4 H4B 108.3 . . ?
N2 C5 C6 108.6(2) . . ?
N2 C5 H5A 110.0 . . ?
C6 C5 H5A 110.0 . . ?
N2 C5 H5B 110.0 . . ?
C6 C5 H5B 110.0 . . ?
H5A C5 H5B 108.4 . . ?
N3 C6 C5 109.7(2) . . ?
N3 C6 H6A 109.7 . . ?
C5 C6 H6A 109.7 . . ?
N3 C6 H6B 109.7 . . ?
C5 C6 H6B 109.7 . . ?
H6A C6 H6B 108.2 . . ?
N3 C7 H7A 109.5 . . ?
N3 C7 H7B 109.5 . . ?
H7A C7 H7B 109.5 . . ?
N3 C7 H7C 109.5 . . ?
H7A C7 H7C 109.5 . . ?
H7B C7 H7C 109.5 . . ?
N3 C8 H8A 109.5 . . ?
N3 C8 H8B 109.5 . . ?
H8A C8 H8B 109.5 . . ?
N3 C8 H8C 109.5 . . ?
H8A C8 H8C 109.5 . . ?
H8B C8 H8C 109.5 . . ?
 
loop_
 _geom_torsion_atom_site_label_1
 _geom_torsion_atom_site_label_2
 _geom_torsion_atom_site_label_3
 _geom_torsion_atom_site_label_4
 _geom_torsion
 _geom_torsion_site_symmetry_1
 _geom_torsion_site_symmetry_2
 _geom_torsion_site_symmetry_3
 _geom_torsion_site_symmetry_4
 _geom_torsion_publ_flag
N3 Ga1 N2 C5 29.9(5) . . . . ?
N1 Ga1 N2 C5 -142.1(3) . . . . ?
N3 Ga1 N2 C4 148.4(3) . . . . ?
N1 Ga1 N2 C4 -23.6(5) . . . . ?
N3 Ga1 N2 Ga2 -89.4(5) . . . . ?
N1 Ga1 N2 Ga2 98.7(4) . . . . ?
C1 N1 C3 C4 153.2(3) . . . . ?
C2 N1 C3 C4 -86.8(3) . . . . ?
Al1 N1 C3 C4 32.0(3) . . . . ?
Ga1 N1 C3 C4 31.4(4) . . . . ?
C5 N2 C4 C3 164.9(2) . . . . ?
Ga1 N2 C4 C3 49.2(6) . . . . ?
Al1 N2 C4 C3 48.2(4) . . . . ?
Ga2 N2 C4 C3 -76.2(3) . . . . ?
N1 C3 C4 N2 -53.9(3) . . . . ?
C4 N2 C5 C6 -171.4(2) . . . . ?
Ga1 N2 C5 C6 -52.6(6) . . . . ?
Al1 N2 C5 C6 -53.8(4) . . . . ?
Ga2 N2 C5 C6 69.9(3) . . . . ?
C8 N3 C6 C5 92.8(3) . . . . ?
C7 N3 C6 C5 -147.8(3) . . . . ?
Ga1 N3 C6 C5 -25.1(4) . . . . ?
Al1 N3 C6 C5 -24.8(3) . . . . ?
N2 C5 C6 N3 52.2(3) . . . . ?
 
_refine_diff_density_max    0.258
_refine_diff_density_min   -0.224
_refine_diff_density_rms    0.038

_shelxl_version_number 2014/6

_shelx_res_file
;
TITL 1b in P2(1)2(1)2(1) Luo et al BRUKER-MIT workshop
CELL 0.71073   6.2256  12.9136  17.4444  90.000  90.000  90.000
ZERR    4.00   0.0008   0.0015   0.0021   0.000   0.000   0.000
LATT -1
SYMM 0.5-X, -Y, 0.5+Z
SYMM -X, 0.5+Y, 0.5-Z
SYMM 0.5+X, 0.5-Y, -Z
SFAC C H N AL GA
UNIT 32 100 12 3.36 4.64
TEMP -100
SIZE 0.40 0.30 0.20

L.S. 8
BOND $H
FMAP 2
PLAN 10

ACTA
CONF
LIST 4
HTAB

TWIN

SADI 0.005 Ga2 H3' Ga2 H4' Ga2 H5'
SADI H3' H4' H3' H5' H4' H5'
SADI AL1 H1' Al1 H2'
SADI Ga1 H1' GA1 H2'

EADP Al1 Ga1
WGHT    0.027100    0.258000
BASF   0.43497
FVAR       0.14963   0.84426
PART 1
AL1   4    0.239793    0.429047    0.034998    21.00000    0.03129    0.02827 =
         0.01855   -0.00544   -0.00383   -0.00049
PART   2
GA1   5    0.253954    0.433906    0.044270   -21.00000    0.03129    0.02827 =
         0.01855   -0.00544   -0.00383   -0.00049
PART   0
H1'   2    0.014423    0.440396    0.037270    11.00000   -1.20000
H2'   2    0.365916    0.361202   -0.009358    11.00000   -1.20000
GA2   5    0.208877    0.612476    0.176941    11.00000    0.05602    0.04134 =
         0.03668   -0.01090    0.00271    0.00680
H3'   2    0.357358    0.619562    0.239500    11.00000   -1.20000
H4'   2    0.154224    0.710977    0.145666    11.00000   -1.20000
H5'   2    0.026998    0.550605    0.196963    11.00000   -1.20000
N1    3    0.304302    0.555908   -0.046424    11.00000    0.04943    0.03474 =
         0.02842   -0.00089    0.00429    0.00096
N2    3    0.403050    0.523115    0.107491    11.00000    0.02963    0.03259 =
         0.03203   -0.00064   -0.00337   -0.00030
N3    3    0.268196    0.321769    0.133270    11.00000    0.03739    0.03106 =
         0.02992   -0.00035   -0.00140    0.00323
C1    1    0.104531    0.593800   -0.082157    11.00000    0.07011    0.05016 =
         0.04282    0.00714   -0.01388    0.00444
AFIX 137
H1A   2    0.137997    0.651129   -0.116974    11.00000   -1.50000
H1B   2    0.005924    0.617983   -0.042193    11.00000   -1.50000
H1C   2    0.036917    0.537467   -0.111049    11.00000   -1.50000
AFIX   0
C2    1    0.451658    0.519406   -0.107270    11.00000    0.08319    0.05101 =
         0.03953    0.00072    0.02313    0.00192
AFIX 137
H2A   2    0.478177    0.575725   -0.143716    11.00000   -1.50000
H2B   2    0.386460    0.460674   -0.134183    11.00000   -1.50000
H2C   2    0.587910    0.497649   -0.084202    11.00000   -1.50000
AFIX   0
C3    1    0.408644    0.639626   -0.002128    11.00000    0.05261    0.03457 =
         0.03739    0.00243    0.00622   -0.00989
AFIX  23
H3A   2    0.297956    0.686066    0.019745    11.00000   -1.20000
H3B   2    0.501960    0.681102   -0.036318    11.00000   -1.20000
AFIX   0
C4    1    0.541105    0.593055    0.061521    11.00000    0.03953    0.04210 =
         0.04414    0.00019    0.00362   -0.00946
AFIX  23
H4A   2    0.663070    0.553712    0.039659    11.00000   -1.20000
H4B   2    0.599618    0.648654    0.094546    11.00000   -1.20000
AFIX   0
C5    1    0.538263    0.455761    0.156339    11.00000    0.03257    0.04432 =
         0.04487    0.00051   -0.01193    0.00316
AFIX  23
H5A   2    0.609941    0.497642    0.196404    11.00000   -1.20000
H5B   2    0.650409    0.421870    0.124883    11.00000   -1.20000
AFIX   0
C6    1    0.396543    0.374928    0.193056    11.00000    0.04374    0.04085 =
         0.02853    0.00186   -0.00953    0.00773
AFIX  23
H6A   2    0.486310    0.323799    0.220658    11.00000   -1.20000
H6B   2    0.299407    0.408222    0.230627    11.00000   -1.20000
AFIX   0
C7    1    0.055615    0.290307    0.164373    11.00000    0.04753    0.05385 =
         0.04423    0.01126    0.00411   -0.00742
AFIX 137
H7A   2    0.076508    0.242874    0.207586    11.00000   -1.50000
H7B   2   -0.027325    0.255477    0.124185    11.00000   -1.50000
H7C   2   -0.022447    0.351836    0.181846    11.00000   -1.50000
AFIX   0
C8    1    0.380954    0.227138    0.106649    11.00000    0.07254    0.03265 =
         0.05010    0.00017   -0.00257    0.01568
AFIX 137
H8A   2    0.384706    0.176122    0.148218    11.00000   -1.50000
H8B   2    0.528069    0.244893    0.091592    11.00000   -1.50000
H8C   2    0.304558    0.197899    0.062556    11.00000   -1.50000

AFIX   0
HKLF 4

REM  1b in P2(1)2(1)2(1) Luo et al BRUKER-MIT workshop
REM R1 =  0.0204 for    2334 Fo > 4sig(Fo)  and  0.0237 for all    2482 data
REM    142 parameters refined using      8 restraints

END

WGHT      0.0277      0.2519

REM No hydrogen bonds found for HTAB generation

REM Highest difference peak  0.258,  deepest hole -0.224,  1-sigma level  0.038
Q1    1   0.3229  0.5732  0.1713  11.00000  0.05    0.26
Q2    1   0.2934  0.6886  0.1768  11.00000  0.05    0.23
Q3    1   0.4650  0.4227  0.1812  11.00000  0.05    0.20
Q4    1   0.0589  0.6570  0.1451  11.00000  0.05    0.19
Q5    1   0.1847  0.5226  0.1811  11.00000  0.05    0.18
Q6    1   0.1200  0.5705  0.1758  11.00000  0.05    0.18
Q7    1   0.1047  0.6779  0.1827  11.00000  0.05    0.17
Q8    1   0.3209  0.3779  0.0362  11.00000  0.05    0.15
Q9    1   0.2200  0.3525  0.1029  11.00000  0.05    0.15
Q10   1   0.2168  0.5676 -0.0546  11.00000  0.05    0.14
;
_shelx_res_checksum   82696

_shelx_hkl_file
;
  -1   0   0   -0.08    0.05
   1   0   0    0.05    0.06
  -1   0   0    0.05    0.05
   2   0   0  114.06    3.56
  -2   0   0  125.59    3.55
  -2   0   0  108.92    3.55
  -2   0   0  116.42    3.55
  -3   0   0   -0.16    0.13
   3   0   0   -0.02    0.16
   4   0   0   56.90    1.81
  -4   0   0   57.65    1.77
  -4   0   0   55.38    1.78
   5   0   0    0.22    0.31
  -5   0   0   -0.05    0.25
   6   0   0   17.89    0.67
   6   0   0   18.41    0.75
  -7   0   0   -0.32    0.33
   7   0   0   -0.07    0.38
   0  -1   0    0.01    0.02
   0   1   0    0.06    0.03
   0   1   0    0.04    0.02
   1   1   0  901.30   28.72
  -1  -1   0  984.42   28.70
   1   1   0  942.53   28.69
   1  -1   0  928.87   28.72
   1  -1   0  952.59   28.86
  -1  -1   0 1000.00   28.79
  -1   1   0  934.25   28.69
  -1   1   0  911.74   28.68
   2   1   0   47.21    1.44
  -2  -1   0   46.14    1.43
   2  -1   0   47.31    1.46
  -2   1   0   46.00    1.44
  -2   1   0   44.18    1.44
  -2  -1   0   47.81    1.44
   2   1   0   47.49    1.45
  -3  -1   0   72.92    2.30
  -3   1   0   75.55    2.29
   3   1   0   76.04    2.29
  -3  -1   0   74.63    2.28
   3   1   0   75.49    2.31
   3  -1   0   73.55    2.32
  -3   1   0   72.18    2.30
  -4  -1   0   23.96    0.82
  -4   1   0   23.84    0.82
   4  -1   0   24.19    0.85
  -4   1   0   23.49    0.80
   4   1   0   25.03    0.85
   4   1   0   24.86    0.80
   5  -1   0   15.57    0.65
  -5  -1   0   14.02    0.58
   5   1   0   15.43    0.56
  -5   1   0   14.58    0.59
  -5   1   0   15.65    0.56
   5   1   0   15.54    0.64
  -6   1   0    2.41    0.35
   6  -1   0    2.43    0.39
   6   1   0    2.22    0.38
  -6  -1   0    2.50    0.33
   6   1   0    2.21    0.29
   7   1   0    5.51    0.49
   7  -1   0    6.00    0.51
  -7   1   0    5.62    0.44
  -7  -1   0    5.41    0.44
   0  -2   0  204.13    6.09
   0   2   0  195.66    6.11
  -1  -2   0    1.06    0.10
   1   2   0    1.05    0.10
  -1   2   0    0.74    0.09
  -1  -2   0    0.96    0.10
  -1   2   0    0.65    0.10
   1  -2   0    0.98    0.11
   1  -2   0    0.81    0.09
   1   2   0    0.78    0.10
   2   2   0    6.42    0.28
   2  -2   0    6.35    0.24
  -2  -2   0    7.44    0.26
   2   2   0    7.26    0.26
  -2   2   0    7.20    0.26
  -2   2   0    6.89    0.27
  -2  -2   0    7.12    0.27
   2  -2   0    7.29    0.30
  -3   2   0   59.50    1.87
  -3  -2   0   60.46    1.88
   3   2   0   61.24    1.87
  -3   2   0   58.49    1.88
   3   2   0   60.06    1.90
   3  -2   0   61.25    1.91
  -3  -2   0   62.37    1.87
  -4  -2   0    7.25    0.35
   4   2   0    7.60    0.33
   4  -2   0    7.26    0.40
   4   2   0    7.76    0.39
  -4   2   0    7.78    0.35
  -4   2   0    7.72    0.32
  -4  -2   0    6.71    0.30
   5   2   0   18.82    0.66
  -5  -2   0   17.32    0.68
  -5   2   0   18.38    0.65
   5  -2   0   19.12    0.74
  -5   2   0   17.35    0.68
   5   2   0   19.12    0.73
   6  -2   0    1.65    0.40
   6   2   0    1.74    0.36
  -6   2   0    1.81    0.28
   6   2   0    0.85    0.27
  -6   2   0    1.97    0.33
  -6  -2   0    1.74    0.32
  -7   2   0    2.30    0.38
   7  -2   0    2.08    0.47
  -7  -2   0    2.00    0.38
   7   2   0    2.28    0.44
   0   3   0   -0.11    0.10
   0  -3   0   -0.14    0.08
   0   3   0    0.11    0.08
   1   3   0   74.00    2.34
  -1  -3   0   81.05    2.34
   1   3   0   75.77    2.34
   1  -3   0   78.04    2.34
  -1   3   0   71.90    2.34
  -1   3   0   71.83    2.33
  -1  -3   0   80.58    2.33
   1  -3   0   76.20    2.34
   2  -3   0   20.47    0.69
   2   3   0   17.98    0.67
  -2   3   0   20.91    0.67
  -2  -3   0   22.31    0.67
   2   3   0   20.79    0.67
   2  -3   0   20.57    0.66
  -2  -3   0   22.64    0.67
  -2   3   0   20.27    0.67
  -3   3   0    9.23    0.38
   3  -3   0    9.13    0.34
   3   3   0   10.19    0.37
  -3   3   0   10.35    0.37
   3  -3   0   10.03    0.42
  -3  -3   0   10.08    0.38
   3   3   0    9.62    0.40
  -3  -3   0   10.36    0.37
   4   3   0   11.28    0.48
  -4  -3   0   10.28    0.41
  -4   3   0   11.23    0.45
   4  -3   0   10.88    0.51
  -4   3   0   10.90    0.43
   4   3   0   11.74    0.43
  -4  -3   0   10.92    0.44
   5   3   0    1.71    0.25
   5  -3   0    1.65    0.35
   5   3   0    1.34    0.31
  -5  -3   0    1.00    0.26
  -5   3   0    1.30    0.27
  -5   3   0    1.27    0.24
   6   3   0    4.75    0.44
   6   3   0    4.89    0.35
  -6   3   0    5.03    0.34
  -6  -3   0    4.58    0.38
   6  -3   0    5.18    0.46
  -6   3   0    4.84    0.38
  -7  -3   0    0.32    0.35
  -7   3   0    0.50    0.37
   7  -3   0    0.24    0.43
   7   3   0    0.47    0.38
   0   4   0  207.19    6.51
   0   4   0  211.81    6.51
   0  -4   0  222.09    6.51
   1   4   0    7.60    0.30
  -1  -4   0    8.79    0.30
   1  -4   0    8.55    0.32
   1   4   0    8.81    0.31
  -1  -4   0    8.87    0.32
  -1   4   0    7.86    0.30
  -1   4   0    8.57    0.32
   1  -4   0    8.95    0.32
   2  -4   0  149.68    4.60
  -2  -4   0  156.27    4.61
  -2   4   0  147.26    4.60
   2   4   0  147.77    4.61
  -2  -4   0  160.45    4.61
   2   4   0  149.50    4.60
   2  -4   0  149.71    4.62
  -2   4   0  145.07    4.60
  -3  -4   0   -0.03    0.15
  -3   4   0    0.08    0.15
   3   4   0    0.00    0.15
   3  -4   0   -0.03    0.13
  -3  -4   0   -0.17    0.13
   3  -4   0    0.01    0.20
   3   4   0    0.14    0.17
  -3   4   0    0.07    0.15
   4   4   0   16.35    0.58
  -4   4   0   15.50    0.59
  -4   4   0   15.73    0.58
   4   4   0   16.24    0.62
  -4  -4   0   16.51    0.58
  -4  -4   0   15.94    0.59
   4  -4   0   17.00    0.66
   5  -4   0   -0.09    0.33
  -5   4   0    0.40    0.23
  -5   4   0    0.01    0.25
  -5  -4   0   -0.09    0.25
   5   4   0   -0.09    0.28
   5   4   0   -0.14    0.23
   6  -4   0    0.73    0.39
  -6  -4   0    0.56    0.31
  -6   4   0    0.07    0.30
   6   4   0    1.17    0.34
   6   4   0    0.17    0.28
   7  -4   0    0.36    0.46
  -7   4   0    0.09    0.37
   7   4   0    0.56    0.39
  -7  -4   0    0.16    0.35
   0  -5   0   -0.07    0.11
   0   5   0   -0.18    0.12
   0   5   0    0.03    0.10
  -1  -5   0  210.93    6.15
  -1  -5   0  212.37    6.17
  -1   5   0  188.68    6.16
   1   5   0  193.68    6.15
   1  -5   0  203.78    6.16
  -1   5   0  196.82    6.15
   1  -5   0  206.35    6.16
   1   5   0  202.72    6.16
  -2  -5   0   26.79    0.81
   2   5   0   24.65    0.81
   2  -5   0   25.29    0.83
  -2   5   0   24.11    0.81
  -2   5   0   23.36    0.80
  -2  -5   0   26.82    0.83
   2   5   0   23.08    0.81
   2  -5   0   25.56    0.81
   3  -5   0   62.72    1.91
   3  -5   0   60.56    1.95
  -3   5   0   60.95    1.92
  -3   5   0   59.62    1.92
  -3  -5   0   62.77    1.92
   3   5   0   58.53    1.92
  -3  -5   0   62.84    1.92
   3   5   0   62.80    1.92
   4  -5   0    5.36    0.40
   4   5   0    6.09    0.33
  -4  -5   0    4.92    0.32
  -4   5   0    5.37    0.32
   4   5   0    4.94    0.34
  -4   5   0    5.79    0.31
  -4  -5   0    5.47    0.31
   5  -5   0    0.88    0.36
   5   5   0    0.16    0.29
   5   5   0    0.65    0.26
  -5  -5   0    0.48    0.26
  -5   5   0    0.83    0.27
  -5   5   0    0.44    0.25
   6   5   0    6.36    0.46
   6   5   0    6.27    0.40
  -6  -5   0    5.26    0.41
   6  -5   0    6.28    0.52
  -6   5   0    6.05    0.43
  -7  -5   0    0.95    0.37
  -7   5   0    0.20    0.39
   7  -5   0    0.38    0.48
   0   6   0   95.16    2.99
   0  -6   0   99.85    3.00
   0   6   0   95.65    2.98
   1  -6   0   36.15    1.13
   1   6   0   34.71    1.13
   1   6   0   34.50    1.12
  -1   6   0   32.62    1.10
  -1  -6   0   37.43    1.14
  -1   6   0   34.43    1.13
  -1  -6   0   36.19    1.11
   1  -6   0   36.31    1.13
   2   6   0   44.81    1.44
  -2  -6   0   49.40    1.46
  -2   6   0   43.02    1.43
   2   6   0   43.57    1.44
   2  -6   0   45.73    1.46
   2  -6   0   45.82    1.45
  -2  -6   0   48.58    1.44
  -2   6   0   44.29    1.45
  -3  -6   0   57.00    1.72
   3   6   0   55.53    1.72
   3   6   0   53.04    1.72
  -3  -6   0   54.62    1.72
  -3   6   0   51.64    1.71
   3  -6   0   55.13    1.75
  -3   6   0   53.18    1.71
   3  -6   0   54.07    1.71
  -4  -6   0   12.90    0.52
   4  -6   0   13.54    0.60
  -4  -6   0   13.76    0.53
  -4   6   0   12.97    0.53
   4   6   0   13.72    0.53
  -4   6   0   13.35    0.52
   4   6   0   12.72    0.54
   5   6   0    7.85    0.44
  -5  -6   0    6.93    0.41
  -5   6   0    7.47    0.40
   5  -6   0    7.75    0.50
   5   6   0    7.61    0.41
  -5   6   0    7.79    0.41
   6   6   0    0.24    0.31
  -6   6   0    0.84    0.33
   6  -6   0    0.05    0.40
  -6  -6   0    0.32    0.32
   0   7   0   -0.02    0.17
   0  -7   0    0.31    0.18
   0   7   0    0.15    0.13
   1  -7   0    2.19    0.24
  -1  -7   0    2.54    0.19
   1  -7   0    2.21    0.23
   1   7   0    2.51    0.23
  -1   7   0    2.20    0.24
  -1  -7   0    2.44    0.25
   1   7   0    2.05    0.18
  -1   7   0    2.40    0.17
  -2  -7   0   74.68    2.18
  -2   7   0   66.23    2.17
   2  -7   0   70.19    2.20
   2  -7   0   70.92    2.21
   2   7   0   68.23    2.18
  -2  -7   0   73.90    2.21
   2   7   0   69.78    2.20
  -2   7   0   67.75    2.20
  -3  -7   0   26.27    0.86
   3  -7   0   25.69    0.90
   3  -7   0   24.69    0.86
  -3   7   0   25.66    0.87
  -3   7   0   25.26    0.85
   3   7   0   25.64    0.87
  -3  -7   0   25.32    0.88
   3   7   0   23.83    0.85
  -4  -7   0    6.47    0.36
   4   7   0    7.26    0.39
   4   7   0    6.46    0.39
  -4  -7   0    6.65    0.40
  -4   7   0    6.36    0.36
   4  -7   0    6.89    0.46
  -4   7   0    6.66    0.39
   5   7   0    3.85    0.35
  -5  -7   0    2.99    0.32
  -5   7   0    2.87    0.33
   5  -7   0    2.62    0.44
  -5   7   0    2.73    0.33
  -6   7   0    6.62    0.44
  -6  -7   0    6.77    0.45
   6  -7   0    6.24    0.55
   6   7   0    6.34    0.45
   0   8   0    7.24    0.34
   0  -8   0    6.82    0.31
   0   8   0    6.47    0.29
   0  -8   0    6.15    0.36
  -1  -8   0    1.67    0.24
  -1   8   0    1.27    0.17
   1   8   0    1.54    0.20
  -1   8   0    1.25    0.23
   1  -8   0    1.56    0.24
   1   8   0    1.87    0.24
   1  -8   0    1.33    0.22
  -2  -8   0    0.29    0.23
  -2   8   0    1.03    0.18
   2  -8   0    0.21    0.22
   2   8   0    0.49    0.23
  -2   8   0    0.73    0.23
   2  -8   0    0.77    0.25
   2   8   0    0.82    0.19
  -2  -8   0    0.57    0.20
   3  -8   0   15.74    0.65
  -3  -8   0   16.69    0.63
  -3   8   0   14.24    0.57
   3   8   0   15.78    0.61
   3  -8   0   15.80    0.61
  -3   8   0   15.61    0.60
  -3  -8   0   15.69    0.59
  -4   8   0    7.23    0.41
  -4  -8   0    7.32    0.40
  -4  -8   0    7.05    0.42
   4  -8   0    6.56    0.48
   4   8   0    7.34    0.41
  -4   8   0    7.00    0.38
  -5  -8   0    0.36    0.31
  -5   8   0    0.87    0.31
   5  -8   0    0.41    0.41
  -5   8   0    0.83    0.30
   5   8   0    0.87    0.32
   6   8   0    0.97    0.36
  -6  -8   0    1.10    0.35
   6  -8   0    0.64    0.46
  -6   8   0    0.93    0.35
   0   9   0   -0.30    0.22
   0  -9   0    0.03    0.20
   0  -9   0    0.08    0.23
   0   9   0    0.12    0.16
   1  -9   0    8.96    0.46
  -1   9   0    9.04    0.38
  -1   9   0    9.78    0.44
   1   9   0    9.37    0.40
   1  -9   0   10.70    0.44
   1   9   0    9.61    0.43
  -1  -9   0    9.90    0.47
  -2  -9   0    3.53    0.34
   2  -9   0    2.86    0.31
   2  -9   0    2.96    0.32
  -2  -9   0    3.32    0.27
  -2   9   0    2.83    0.24
  -2   9   0    2.87    0.31
   2   9   0    3.14    0.31
   3  -9   0   -0.17    0.26
   3  -9   0   -0.15    0.32
   3   9   0    0.64    0.28
  -3   9   0    0.51    0.27
  -3  -9   0   -0.04    0.26
  -3  -9   0    0.08    0.24
  -3   9   0    0.35    0.22
  -4  -9   0    2.99    0.37
  -4  -9   0    2.68    0.34
   4  -9   0    2.92    0.42
  -4   9   0    2.91    0.35
   4   9   0    3.33    0.35
   5  -9   0   -0.10    0.43
   5   9   0    0.36    0.33
  -5  -9   0    0.36    0.32
  -5   9   0   -0.02    0.32
   6   9   0    0.49    0.38
   6  -9   0   -0.13    0.50
  -6  -9   0    0.01    0.36
   0 -10   0   12.04    0.55
   0 -10   0   12.26    0.49
   0  10   0   11.32    0.51
  -1  10   0    0.34    0.26
   1  10   0    0.16    0.24
   1 -10   0   -0.19    0.27
   1 -10   0    0.26    0.27
  -1 -10   0    0.43    0.28
   2 -10   0    2.93    0.35
  -2 -10   0    3.06    0.37
   2 -10   0    2.87    0.35
   2  10   0    3.18    0.34
  -2  10   0    3.57    0.34
   3 -10   0    4.68    0.43
   3 -10   0    4.94    0.39
   3  10   0    4.72    0.37
  -3  10   0    4.59    0.37
  -3 -10   0    4.29    0.39
  -4  10   0    0.25    0.32
  -4 -10   0    0.09    0.32
   4 -10   0   -0.43    0.37
   4  10   0   -0.02    0.31
   5  10   0    8.20    0.49
  -5  10   0    6.98    0.49
   5 -10   0    6.77    0.59
   0  11   0   -0.26    0.27
   0 -11   0   -0.27    0.30
  -1  11   0    1.24    0.31
  -1 -11   0    0.93    0.31
   1  11   0    1.16    0.28
   1 -11   0    0.62    0.30
   2 -11   0    4.84    0.42
  -2  11   0    4.97    0.39
  -2 -11   0    5.47    0.42
   2  11   0    5.17    0.38
   2 -11   0    5.52    0.40
  -3 -11   0    0.44    0.33
   3  11   0    0.79    0.32
   3 -11   0    0.24    0.32
   3 -11   0   -0.22    0.38
  -3  11   0    1.05    0.31
  -4 -11   0   17.39    0.74
  -4  11   0   16.43    0.71
   4  11   0   17.00    0.71
  -5  11   0   -0.16    0.36
   5 -11   0   -0.28    0.48
   5  11   0    0.31    0.38
   0 -12   0    4.87    0.45
   0  12   0    5.57    0.40
  -1  12   0    1.38    0.34
   1 -12   0    1.37    0.34
  -1 -12   0    1.49    0.34
   1  12   0    1.74    0.31
  -2 -12   0    0.09    0.32
   2  12   0    0.21    0.29
  -2  12   0    0.32    0.32
   3 -12   0   12.64    0.63
  -3  12   0   12.11    0.59
  -3 -12   0   12.88    0.63
   3 -12   0   12.83    0.65
   3  12   0   11.99    0.58
   4 -12   0   -0.65    0.43
  -4  12   0    0.17    0.36
  -4 -12   0   -0.16    0.38
   4  12   0    0.25    0.36
   0  13   0   -0.10    0.31
   0 -13   0   -0.32    0.34
   1 -13   0    5.15    0.48
   1  13   0    6.53    0.42
  -1  13   0    6.57    0.45
  -1 -13   0    5.77    0.48
  -2  13   0    0.60    0.36
   2 -13   0    0.70    0.37
   2  13   0    0.92    0.33
  -2 -13   0    1.40    0.38
   3  13   0    0.10    0.33
  -3  13   0    0.08    0.35
  -3 -13   0   -0.43    0.37
   3 -13   0   -0.45    0.37
   0 -14   0    1.38    0.40
   0  14   0    1.50    0.37
  -1  14   0    1.49    0.38
   1 -14   0    1.30    0.40
  -1 -14   0    1.13    0.40
   1  14   0    1.57    0.36
   2  14   0    0.87    0.36
  -2 -14   0   -0.04    0.39
   2 -14   0   -0.11    0.39
  -2  14   0    0.54    0.38
  -3 -14   0   -0.28    0.41
   3  14   0    0.45    0.35
  -3  14   0   -0.17    0.36
   0  15   0   -0.15    0.35
   0 -15   0   -0.59    0.40
   1 -15   0    0.62    0.43
   1  15   0    0.49    0.37
  -1 -15   0    0.78    0.43
  -1  15   0    0.66    0.39
   0   0   1    0.01    0.01
   0   0   1   -0.01    0.01
  -1   0   1    5.76    0.19
  -1   0  -1    5.22    0.18
  -1   0  -1    5.17    0.18
   1   0   1    5.00    0.18
  -1   0   1    5.73    0.19
   1   0  -1    5.11    0.19
   1   0   1    4.99    0.19
  -2   0  -1    2.23    0.14
  -2   0   1    2.07    0.14
   2   0  -1    2.55    0.17
   2   0   1    2.13    0.18
  -2   0   1    2.29    0.14
  -2   0  -1    2.56    0.13
   3   0   1   19.54    0.68
  -3   0   1   19.45    0.64
  -3   0   1   19.37    0.65
  -3   0  -1   17.66    0.62
  -3   0  -1   20.40    0.64
   3   0  -1   20.38    0.68
  -3   0  -1   20.14    0.65
  -4   0   1    3.24    0.27
   4   0   1    3.73    0.31
  -4   0   1    3.36    0.25
  -4   0  -1    3.84    0.25
   4   0  -1    3.72    0.31
  -4   0  -1    3.23    0.23
   5   0   1   35.34    1.19
   5   0  -1   35.41    1.19
  -5   0  -1   35.06    1.15
  -5   0   1   32.38    1.15
   6   0   1    7.23    0.47
   6   0  -1    7.77    0.49
  -6   0   1    7.01    0.42
   6   0  -1    7.08    0.39
  -6   0  -1    6.59    0.43
   7   0   1    3.36    0.45
  -7   0  -1    2.31    0.38
   7   0  -1    3.38    0.49
  -7   0   1    3.11    0.41
   0   1   1    2.02    0.08
   0   1  -1    2.00    0.08
   0   1   1    1.99    0.09
   0  -1   1    2.19    0.08
   0  -1  -1    2.15    0.08
   1   1  -1   66.53    2.15
   1  -1   1   71.43    2.16
   1  -1   1   74.81    2.15
  -1   1   1   67.68    2.15
   1   1  -1   70.22    2.15
  -1  -1  -1   72.63    2.15
  -1  -1  -1   70.68    2.15
  -1   1   1   68.76    2.15
   1   1   1   69.16    2.10
   1   1   1   71.36    2.11
   1  -1  -1   67.28    2.11
  -1  -1   1   68.87    2.11
  -1   1  -1   67.50    2.10
  -1  -1   1   70.58    2.11
  -1   1  -1   66.84    2.10
   2  -1   1   17.10    0.55
  -2   1   1   16.18    0.52
   2  -1   1   15.95    0.51
  -2   1   1   15.42    0.53
  -2  -1  -1   16.33    0.53
   2   1  -1   16.78    0.53
   2   1  -1   16.02    0.54
  -2  -1  -1   15.44    0.52
   2  -1  -1   16.24    0.56
  -2   1  -1   16.29    0.54
   2   1   1   17.52    0.56
  -2   1  -1   16.40    0.53
  -2  -1   1   16.04    0.52
  -2  -1   1   16.41    0.54
   2   1   1   16.94    0.53
   3   1  -1   35.02    1.09
  -3  -1  -1   34.89    1.10
  -3   1   1   34.62    1.09
   3  -1   1   33.06    1.07
  -3   1   1   33.88    1.09
  -3  -1  -1   33.37    1.07
   3  -1   1   35.00    1.12
   3   1  -1   35.42    1.11
  -3   1  -1   35.43    1.12
  -3   1  -1   34.77    1.14
   3   1   1   36.12    1.12
   3  -1  -1   35.48    1.16
   3   1   1   36.35    1.16
  -3  -1   1   36.18    1.14
  -4   1   1   19.43    0.69
   4  -1   1   20.31    0.73
   4   1  -1   19.85    0.72
  -4  -1  -1   19.70    0.68
  -4  -1  -1   18.75    0.64
  -4   1   1   19.68    0.67
   4   1  -1   20.23    0.67
   4  -1  -1   19.27    0.72
   4   1   1   21.40    0.73
   4   1   1   19.28    0.66
  -4  -1   1   19.35    0.68
  -4   1  -1   18.96    0.68
  -4   1  -1   19.81    0.66
  -5   1   1    4.42    0.33
  -5   1   1    4.79    0.31
   5   1  -1    4.54    0.39
   5  -1   1    5.08    0.41
   5   1  -1    4.31    0.30
  -5  -1  -1    4.57    0.33
  -5   1  -1    4.73    0.30
  -5  -1   1    4.55    0.33
   5   1   1    4.85    0.38
  -5   1  -1    4.16    0.33
   5  -1  -1    5.20    0.41
   5   1   1    4.54    0.29
   6   1  -1   14.48    0.65
  -6   1   1   13.02    0.59
   6   1  -1   14.37    0.56
  -6  -1  -1   13.69    0.59
   6  -1   1   14.19    0.66
  -6   1   1   14.27    0.56
   6   1   1   14.34    0.64
  -6   1  -1   13.58    0.59
   6  -1  -1   14.22    0.66
  -6  -1   1   13.24    0.59
  -7  -1  -1    0.82    0.34
  -7   1   1    0.61    0.35
   7  -1   1    0.42    0.40
   7   1  -1    0.19    0.39
  -7  -1   1    0.28    0.35
   7  -1  -1    1.24    0.45
   7   1   1    0.39    0.41
  -7   1  -1    0.53    0.34
   0  -2  -1   28.15    0.81
   0  -2   1   25.16    0.80
   0   2   1   25.56    0.81
   0  -2   1   25.95    0.80
   0   2  -1   24.13    0.80
   0   2   1   25.92    0.80
   1  -2   1   23.71    0.71
  -1  -2  -1   24.31    0.72
   1  -2   1   22.44    0.72
  -1   2   1   22.56    0.71
   1   2  -1   22.45    0.71
  -1   2   1   22.45    0.71
  -1  -2  -1   23.78    0.71
   1   2  -1   20.04    0.71
   1   2   1   23.37    0.73
  -1  -2   1   24.62    0.73
  -1   2  -1   23.01    0.73
   1  -2  -1   23.17    0.73
   1  -2  -1   23.07    0.74
  -1  -2   1   24.32    0.73
  -1   2  -1   22.38    0.73
   1   2   1   22.19    0.74
   2  -2   1   91.09    2.72
   2  -2   1   87.48    2.74
  -2  -2  -1   91.17    2.72
   2   2  -1   89.93    2.72
  -2  -2  -1   90.18    2.72
  -2   2   1   89.50    2.72
  -2   2   1   86.65    2.72
   2   2  -1   84.29    2.73
   2   2   1   87.95    2.74
   2   2   1   90.21    2.75
  -2  -2   1   93.07    2.74
  -2   2  -1   87.51    2.74
  -2  -2   1   93.17    2.75
   2  -2  -1   88.45    2.73
  -2   2  -1   88.18    2.73
   2  -2  -1   86.87    2.75
   3  -2   1   15.74    0.54
   3   2  -1   14.94    0.50
  -3   2   1   13.94    0.50
  -3  -2  -1   14.31    0.48
   3  -2   1   13.76    0.48
   3   2  -1   13.54    0.52
  -3  -2  -1   14.98    0.51
  -3   2   1   14.48    0.50
   3  -2  -1   14.67    0.54
   3   2   1   13.85    0.53
   3   2   1   15.25    0.50
  -3  -2   1   14.99    0.52
  -3   2  -1   15.05    0.51
  -3  -2   1   14.17    0.48
  -3   2  -1   14.17    0.49
  -4  -2  -1    4.91    0.26
  -4   2   1    5.51    0.30
  -4  -2  -1    5.68    0.31
  -4   2   1    5.24    0.28
   4  -2   1    5.59    0.36
   4   2  -1    5.70    0.28
   4   2  -1    5.75    0.35
   4  -2  -1    6.00    0.37
  -4   2  -1    5.93    0.28
   4   2   1    6.01    0.28
   4   2   1    5.71    0.35
  -4  -2   1    5.59    0.31
  -4   2  -1    5.70    0.32
  -5   2   1    8.44    0.42
  -5   2   1    8.40    0.40
  -5  -2  -1    8.27    0.42
   5  -2   1    8.98    0.49
   5   2  -1    9.01    0.40
   5   2  -1    8.88    0.48
   5   2   1    8.74    0.39
  -5  -2   1    8.31    0.42
   5  -2  -1    8.23    0.48
  -5   2  -1    8.54    0.42
  -5   2  -1    8.78    0.39
   5   2   1    9.39    0.49
  -6   2   1    0.90    0.30
   6  -2   1    0.89    0.37
   6   2  -1    0.51    0.28
  -6  -2  -1    0.83    0.29
   6   2  -1    0.98    0.34
  -6   2   1    0.75    0.28
   6   2   1    0.97    0.36
   6  -2  -1    1.49    0.39
   6   2   1    0.90    0.27
  -6   2  -1    1.25    0.31
  -6  -2   1    1.16    0.31
   7   2  -1    1.84    0.42
   7  -2   1    0.94    0.43
  -7   2   1    1.00    0.36
  -7  -2  -1    1.17    0.37
   7  -2  -1    1.51    0.45
  -7  -2   1    1.27    0.36
  -7   2  -1    1.27    0.38
   7   2   1    1.63    0.43
   0  -3  -1  153.33    4.43
   0   3   1  142.76    4.43
   0  -3   1  145.97    4.43
   0  -3   1  147.01    4.43
   0   3   1  140.68    4.43
   0   3  -1  141.33    4.43
  -1   3   1   98.99    3.29
   1   3  -1  101.08    3.29
   1   3  -1  103.06    3.29
   1  -3   1  110.11    3.29
   1  -3   1  107.44    3.29
  -1  -3  -1  117.72    3.28
  -1   3   1  103.95    3.28
  -1  -3  -1  118.57    3.30
  -1  -3   1  112.25    3.29
   1   3   1  102.29    3.29
   1  -3  -1  108.82    3.29
   1  -3  -1  108.22    3.29
  -1   3  -1  106.32    3.28
  -1   3  -1  103.23    3.28
   1   3   1  107.59    3.28
  -1  -3   1  111.06    3.28
   2  -3   1   13.98    0.46
   2  -3   1   13.75    0.49
  -2  -3  -1   14.60    0.47
  -2   3   1   13.46    0.46
   2   3  -1   13.89    0.46
  -2   3   1   13.06    0.46
   2   3  -1   12.21    0.46
  -2  -3  -1   14.63    0.46
   2   3   1   13.82    0.48
   2  -3  -1   14.55    0.51
  -2   3  -1   13.71    0.48
   2   3   1   13.97    0.49
  -2   3  -1   14.38    0.48
  -2  -3   1   15.69    0.49
  -2  -3   1   14.93    0.48
   2  -3  -1   13.66    0.47
  -3   3   1   14.87    0.53
  -3  -3  -1   15.27    0.52
   3   3  -1   14.61    0.52
   3  -3   1   15.39    0.57
   3   3  -1   15.41    0.55
  -3  -3  -1   15.35    0.53
  -3   3   1   15.51    0.52
   3  -3   1   14.66    0.51
  -3   3  -1   15.29    0.54
  -3   3  -1   15.69    0.52
   3   3   1   15.64    0.52
  -3  -3   1   15.32    0.54
   3  -3  -1   15.48    0.57
  -3  -3   1   15.80    0.52
   3  -3  -1   14.05    0.50
   3   3   1   15.42    0.55
  -4   3   1   15.44    0.56
   4   3  -1   16.00    0.56
   4  -3   1   15.66    0.62
  -4   3   1   15.80    0.57
  -4  -3  -1   15.03    0.54
   4   3  -1   14.65    0.59
  -4  -3  -1   15.35    0.56
   4   3   1   16.67    0.57
   4  -3  -1   16.56    0.65
   4   3   1   16.24    0.62
  -4   3  -1   15.76    0.59
  -4   3  -1   16.62    0.57
  -4  -3   1   15.75    0.59
  -4  -3   1   15.66    0.55
   5   3  -1    0.96    0.31
  -5   3   1    1.52    0.25
  -5   3   1    1.29    0.28
   5   3  -1    1.20    0.25
   5  -3   1    1.09    0.33
  -5  -3  -1    1.33    0.26
   5  -3  -1    1.52    0.37
   5   3   1    1.12    0.31
   5   3   1    1.36    0.24
  -5  -3   1    1.54    0.27
  -5   3  -1    1.22    0.23
  -5   3  -1    1.60    0.28
   6  -3   1    4.29    0.45
  -6  -3  -1    3.75    0.36
  -6   3   1    4.02    0.33
   6   3  -1    4.25    0.41
  -6   3   1    4.32    0.38
   6   3  -1    3.83    0.34
   6   3   1    3.85    0.33
  -6  -3   1    4.14    0.35
   6  -3  -1    4.55    0.46
  -6   3  -1    3.13    0.35
   6   3   1    3.89    0.42
   7   3  -1    1.89    0.43
   7  -3   1    0.68    0.45
  -7  -3  -1    1.48    0.38
  -7   3   1    1.68    0.38
   7  -3  -1    1.06    0.47
   7   3   1    1.34    0.40
  -7   3  -1    1.89    0.39
  -7  -3   1    1.14    0.37
   0  -4   1    6.07    0.25
   0  -4  -1    6.60    0.25
   0  -4   1    5.87    0.23
   0   4  -1    5.92    0.25
   0   4   1    6.37    0.25
   0   4   1    6.28    0.25
   1  -4   1    0.89    0.13
  -1   4   1    0.76    0.12
   1   4  -1    0.57    0.09
  -1   4   1    0.74    0.10
  -1  -4  -1    0.74    0.12
   1   4  -1    0.86    0.13
  -1  -4  -1    0.69    0.10
   1  -4   1    0.87    0.12
  -1  -4   1    1.09    0.15
  -1   4  -1    1.29    0.13
   1   4   1    0.99    0.13
  -1  -4   1    0.87    0.12
   1  -4  -1    0.89    0.12
  -1   4  -1    0.96    0.12
   1  -4  -1    1.05    0.14
   1   4   1    0.82    0.12
   2   4  -1   22.17    0.76
   2  -4   1   24.27    0.77
  -2  -4  -1   24.75    0.76
   2   4  -1   23.20    0.77
  -2   4   1   23.87    0.76
  -2   4   1   22.35    0.77
   2  -4   1   24.18    0.79
  -2  -4  -1   24.70    0.77
   2  -4  -1   24.26    0.79
   2   4   1   23.40    0.78
   2   4   1   23.92    0.77
  -2  -4   1   24.57    0.78
  -2  -4   1   24.71    0.78
  -2   4  -1   22.82    0.77
  -2   4  -1   23.58    0.77
   2  -4  -1   23.68    0.76
   3  -4   1   41.53    1.31
  -3  -4  -1   41.77    1.32
  -3  -4  -1   43.17    1.32
  -3   4   1   40.76    1.31
   3   4  -1   42.82    1.32
  -3   4   1   41.71    1.32
   3  -4   1   42.06    1.35
   3   4  -1   38.71    1.32
   3   4   1   41.28    1.34
  -3   4  -1   40.99    1.33
   3  -4  -1   42.60    1.36
  -3   4  -1   41.83    1.32
  -3  -4   1   42.14    1.33
   3   4   1   42.27    1.32
  -3  -4   1   43.04    1.32
   3  -4  -1   40.64    1.31
  -4   4   1    5.10    0.30
  -4   4   1    5.52    0.30
   4   4  -1    5.11    0.35
  -4  -4  -1    5.61    0.29
   4   4  -1    4.96    0.30
  -4  -4  -1    5.06    0.31
   4  -4   1    5.87    0.40
  -4  -4   1    4.87    0.31
   4  -4  -1    5.70    0.40
  -4   4  -1    5.19    0.28
  -4  -4   1    5.15    0.28
  -4   4  -1    5.35    0.31
   4   4   1    5.20    0.29
   4   4   1    5.34    0.34
   5  -4   1   19.95    0.79
  -5   4   1   20.69    0.72
  -5  -4  -1   19.14    0.73
  -5   4   1   19.84    0.73
   5   4  -1   20.60    0.72
   5   4  -1   20.10    0.77
  -5  -4   1   20.00    0.74
   5   4   1   21.17    0.72
   5  -4  -1   21.27    0.82
   5   4   1   19.75    0.77
  -5   4  -1   19.81    0.71
  -5   4  -1   20.21    0.75
   6  -4   1    2.36    0.43
   6   4  -1    1.85    0.31
   6   4  -1    1.70    0.36
  -6  -4  -1    1.99    0.33
  -6   4   1    1.92    0.35
  -6   4   1    1.52    0.30
  -6  -4   1    1.33    0.32
   6   4   1    1.58    0.29
   6  -4  -1    1.85    0.42
   6   4   1    2.31    0.38
  -6   4  -1    2.55    0.35
   7  -4   1    4.75    0.52
   7   4  -1    4.61    0.45
  -7  -4  -1    4.17    0.42
  -7   4   1    3.92    0.43
  -7   4  -1    4.94    0.45
  -7  -4   1    4.58    0.44
   7   4   1    5.19    0.49
   7  -4  -1    4.21    0.53
   0   5  -1   33.10    1.06
   0   5   1   32.74    1.06
   0  -5   1   33.82    1.07
   0   5   1   32.93    1.06
   0  -5  -1   34.75    1.07
   0  -5   1   33.59    1.05
  -1  -5  -1   17.51    0.55
  -1   5   1   16.10    0.54
   1   5  -1   16.73    0.57
  -1   5   1   17.46    0.58
   1  -5   1   17.44    0.57
   1   5  -1   15.20    0.55
   1  -5   1   17.65    0.58
  -1  -5  -1   17.82    0.58
   1  -5  -1   18.30    0.59
   1   5   1   16.32    0.58
  -1   5  -1   17.68    0.59
  -1  -5   1   17.24    0.58
  -1   5  -1   17.20    0.58
   1   5   1   16.90    0.59
   1  -5  -1   18.14    0.60
  -1  -5   1   18.06    0.60
  -2   5   1   14.84    0.53
   2  -5   1   16.20    0.54
  -2  -5  -1   16.27    0.52
   2   5  -1   13.95    0.52
   2  -5   1   16.30    0.55
   2   5  -1   14.63    0.53
  -2   5   1   14.02    0.51
  -2  -5  -1   16.21    0.54
  -2  -5   1   15.91    0.53
  -2   5  -1   14.99    0.54
   2   5   1   15.69    0.54
  -2  -5   1   16.66    0.55
   2  -5  -1   16.00    0.56
   2  -5  -1   15.16    0.53
   2   5   1   15.05    0.54
  -2   5  -1   14.57    0.53
   3   5  -1   22.97    0.80
   3   5  -1   23.62    0.80
   3  -5   1   23.99    0.79
  -3   5   1   23.33    0.79
  -3  -5  -1   25.05    0.81
  -3  -5  -1   23.89    0.79
  -3   5   1   23.69    0.80
   3  -5   1   24.48    0.84
   3  -5  -1   25.38    0.84
   3   5   1   23.30    0.81
  -3   5  -1   23.56    0.80
   3  -5  -1   24.12    0.79
  -3   5  -1   23.63    0.80
   3   5   1   24.06    0.80
  -3  -5   1   23.01    0.80
  -3  -5   1   25.26    0.81
  -4  -5  -1   42.63    1.38
   4  -5   1   42.17    1.42
  -4   5   1   42.14    1.38
   4   5  -1   42.90    1.38
  -4  -5  -1   44.29    1.38
   4   5  -1   42.48    1.39
  -4   5   1   42.86    1.38
   4   5   1   43.60    1.39
   4   5   1   44.54    1.43
  -4   5  -1   43.89    1.40
   4  -5  -1   42.93    1.45
  -4   5  -1   43.34    1.41
  -4  -5   1   42.42    1.41
  -4  -5   1   44.32    1.40
   5   5  -1    3.54    0.31
   5  -5   1    3.24    0.40
  -5   5   1    3.43    0.31
  -5   5   1    3.20    0.31
   5   5  -1    2.51    0.34
  -5  -5  -1    3.08    0.31
  -5   5  -1    3.29    0.30
   5  -5  -1    3.49    0.41
   5   5   1    3.79    0.31
   5   5   1    3.81    0.35
  -5   5  -1    3.72    0.34
  -5  -5   1    2.97    0.32
  -6   5   1    9.06    0.50
   6  -5   1    9.96    0.58
  -6   5   1    9.98    0.49
   6   5  -1    9.38    0.48
  -6  -5  -1    9.21    0.49
   6   5  -1   10.46    0.53
   6   5   1   10.12    0.48
   6  -5  -1    9.71    0.59
   6   5   1   10.12    0.53
  -6   5  -1    9.29    0.50
  -6  -5   1    8.63    0.49
  -7   5   1    0.84    0.39
   7  -5   1    1.61    0.48
  -7  -5  -1    0.39    0.37
   7   5   1    1.17    0.41
  -7  -5   1    1.32    0.39
  -7   5  -1    1.26    0.40
   7  -5  -1    0.75    0.47
   0  -6   1  118.11    3.57
   0   6  -1  114.57    3.56
   0  -6  -1  116.49    3.56
   0   6   1  119.84    3.54
   0   6   1  112.41    3.56
   0  -6   1  117.70    3.54
   0   6   1  111.05    3.56
  -1   6   1   21.57    0.73
  -1  -6  -1   24.65    0.77
  -1   6   1   22.23    0.76
   1   6  -1   22.41    0.76
   1  -6   1   23.59    0.77
   1  -6   1   23.91    0.76
   1   6  -1   21.70    0.74
  -1  -6  -1   23.49    0.73
  -1  -6   1   22.95    0.76
   1   6   1   23.48    0.77
   1   6   1   21.53    0.76
  -1   6  -1   22.39    0.76
  -1  -6   1   24.07    0.79
   1  -6  -1   23.84    0.78
  -1   6  -1   23.54    0.78
   1  -6  -1   25.23    0.78
  -2   6   1   57.48    1.83
   2   6  -1   57.65    1.83
  -2   6   1   58.98    1.85
   2   6  -1   56.23    1.85
  -2  -6  -1   62.33    1.84
   2  -6   1   59.47    1.86
  -2  -6  -1   60.33    1.86
   2  -6   1   59.56    1.85
   2  -6  -1   60.03    1.88
  -2  -6   1   62.57    1.88
   2   6   1   55.86    1.86
   2  -6  -1   59.52    1.86
  -2   6  -1   58.99    1.86
  -2  -6   1   61.69    1.86
   2   6   1   59.27    1.86
  -2   6  -1   58.08    1.85
   3  -6   1   37.57    1.20
  -3   6   1   36.34    1.20
  -3  -6  -1   37.75    1.20
   3   6  -1   37.41    1.20
   3   6  -1   34.84    1.19
  -3   6   1   35.54    1.18
  -3  -6  -1   38.94    1.19
   3  -6   1   37.52    1.23
  -3   6  -1   37.70    1.21
  -3   6  -1   37.08    1.21
   3   6   1   37.39    1.21
   3  -6  -1   37.78    1.25
  -3  -6   1   38.24    1.22
  -3  -6   1   38.99    1.22
   3   6   1   36.83    1.22
   3  -6  -1   36.95    1.21
  -4   6   1   26.24    0.91
   4   6  -1   27.77    0.92
  -4  -6  -1   26.60    0.91
  -4  -6  -1   27.65    0.92
  -4   6   1   26.83    0.92
   4  -6   1   27.38    0.98
   4   6  -1   26.19    0.93
   4   6   1   27.61    0.91
   4  -6  -1   26.19    0.97
  -4   6  -1   26.15    0.90
  -4  -6   1   27.52    0.91
  -4   6  -1   25.98    0.90
   4   6   1   26.31    0.93
  -4  -6   1   26.42    0.91
  -5   6   1    7.65    0.40
  -5   6   1    7.35    0.40
  -5  -6  -1    6.78    0.40
   5   6  -1    6.91    0.40
   5  -6   1    7.01    0.48
   5   6   1    7.58    0.40
  -5  -6   1    6.64    0.40
  -5   6  -1    7.04    0.41
  -5   6  -1    7.23    0.39
   5  -6  -1    7.22    0.50
   5   6   1    7.70    0.44
  -6  -6  -1    1.55    0.34
  -6   6   1    1.03    0.32
   6  -6   1    2.00    0.44
   6   6  -1    1.52    0.34
  -6   6   1    1.84    0.35
  -6  -6   1    0.99    0.34
   6   6   1    0.98    0.32
  -6   6  -1    1.23    0.34
   6  -6  -1    1.63    0.47
   6   6   1    1.87    0.38
   0   7   1   21.63    0.74
   0  -7   1   22.25    0.72
   0  -7   1   22.23    0.75
   0   7   1   21.70    0.73
   0   7   1   21.27    0.70
   0  -7  -1   22.17    0.75
   0   7  -1   21.41    0.71
   0   7  -1   21.07    0.74
  -1   7   1   75.27    2.43
  -1   7   1   76.49    2.40
  -1  -7  -1   78.27    2.40
   1  -7   1   79.70    2.42
   1   7  -1   77.43    2.41
  -1  -7  -1   80.57    2.44
   1  -7   1   79.49    2.44
   1   7  -1   76.91    2.43
   1   7   1   76.59    2.49
   1  -7  -1   82.74    2.50
  -1   7  -1   80.17    2.50
  -1  -7   1   80.59    2.50
   1  -7  -1   82.34    2.50
  -1  -7   1   79.55    2.48
   1   7   1   78.05    2.48
  -1   7  -1   81.20    2.48
   2   7  -1   13.63    0.53
   2  -7   1   16.17    0.58
   2  -7   1   15.02    0.56
  -2   7   1   14.21    0.52
   2   7  -1   14.87    0.56
  -2  -7  -1   16.20    0.57
  -2  -7  -1   16.05    0.53
  -2   7   1   15.73    0.57
  -2  -7   1   15.71    0.57
   2  -7  -1   14.82    0.57
  -2   7  -1   14.07    0.52
   2   7   1   14.70    0.53
   2   7   1   15.31    0.55
  -2   7  -1   14.64    0.55
   2  -7  -1   13.95    0.54
  -2  -7   1   14.80    0.53
   3  -7   1   49.89    1.63
   3  -7   1   51.99    1.66
  -3  -7  -1   53.22    1.62
  -3   7   1   50.96    1.63
   3   7  -1   49.91    1.62
  -3  -7  -1   51.61    1.64
  -3   7   1   48.55    1.61
   3   7  -1   52.42    1.63
   3   7   1   52.13    1.65
  -3   7  -1   51.96    1.65
   3   7   1   50.31    1.65
  -3   7  -1   51.39    1.64
  -3  -7   1   52.58    1.67
  -3  -7   1   54.71    1.65
   3  -7  -1   51.94    1.69
   3  -7  -1   49.88    1.65
  -4   7   1    8.73    0.41
   4  -7   1    8.36    0.51
  -4  -7  -1    8.76    0.41
  -4  -7  -1    8.65    0.44
  -4   7   1    9.05    0.43
   4   7  -1    8.66    0.44
  -4   7  -1    8.83    0.42
  -4   7  -1    9.34    0.44
  -4  -7   1    8.63    0.44
   4  -7  -1    8.75    0.51
  -4  -7   1    8.50    0.43
   4   7   1    8.74    0.43
   4   7   1    9.04    0.45
  -5   7   1    3.53    0.35
   5   7  -1    3.96    0.35
  -5  -7  -1    3.04    0.33
   5  -7   1    3.36    0.45
  -5   7   1    3.69    0.33
  -5  -7   1    3.39    0.33
   5  -7  -1    3.41    0.45
  -5   7  -1    4.30    0.34
  -5   7  -1    3.46    0.35
   5   7   1    3.69    0.35
  -6  -7  -1   -0.14    0.32
   6  -7   1    0.27    0.43
   6   7  -1    0.21    0.33
  -6   7   1    0.31    0.33
  -6   7   1   -0.20    0.32
   6   7   1    0.38    0.33
   6  -7  -1   -0.44    0.46
  -6  -7   1   -0.21    0.33
  -6   7  -1    0.29    0.34
   0   8   1   27.22    0.87
   0   8   1   27.31    0.90
   0   8  -1   27.19    0.89
   0   8   1   27.06    0.91
   0  -8   1   27.21    0.93
   0  -8   1   28.09    0.89
   0  -8  -1   26.86    0.93
   0   8  -1   26.85    0.91
   1  -8   1    0.55    0.21
  -1  -8  -1    0.60    0.21
  -1   8   1    0.65    0.21
  -1   8   1    0.55    0.14
   1  -8   1    0.49    0.20
   1   8  -1    0.85    0.21
  -1  -8  -1    0.61    0.16
   1   8  -1    0.48    0.15
  -1   8  -1    0.86    0.17
  -1   8  -1    0.61    0.22
   1  -8  -1    0.47    0.21
  -1  -8   1    0.64    0.22
   1   8   1    0.85    0.21
   1   8   1    0.83    0.18
   1  -8  -1    0.80    0.22
   2  -8   1    9.71    0.44
  -2  -8  -1   10.14    0.45
   2   8  -1   10.14    0.44
  -2  -8  -1   10.26    0.39
   2  -8   1    9.96    0.44
   2   8  -1    8.89    0.39
  -2   8   1    9.02    0.37
  -2   8   1    9.80    0.43
   2   8   1    9.96    0.44
   2  -8  -1   10.46    0.47
   2   8   1    9.72    0.42
  -2   8  -1    9.54    0.41
  -2   8  -1    9.88    0.44
   2  -8  -1   10.25    0.45
  -2  -8   1   10.70    0.42
  -2  -8   1   10.45    0.46
   3  -8   1    7.96    0.41
  -3   8   1    8.14    0.40
  -3  -8  -1    8.14    0.38
  -3   8   1    7.22    0.35
   3   8  -1    7.60    0.40
  -3  -8  -1    7.43    0.41
   3  -8   1    8.42    0.45
  -3  -8   1    7.93    0.39
   3  -8  -1    8.23    0.46
  -3   8  -1    7.49    0.37
   3   8   1    7.58    0.39
  -3   8  -1    7.75    0.39
   3   8   1    7.20    0.40
   3  -8  -1    7.62    0.40
  -3  -8   1    7.76    0.42
  -4   8   1   12.59    0.50
   4   8  -1   11.62    0.53
  -4  -8  -1   11.77    0.54
  -4   8   1   12.38    0.54
   4  -8   1   12.48    0.60
  -4  -8  -1   11.73    0.51
  -4  -8   1   11.25    0.51
   4   8   1   11.78    0.52
  -4   8  -1   12.08    0.52
   4  -8  -1   11.67    0.57
  -4   8  -1   11.67    0.50
  -4  -8   1   11.97    0.55
   5  -8   1   12.03    0.65
   5   8  -1   12.33    0.57
  -5   8   1   12.55    0.57
  -5  -8  -1   11.78    0.55
  -5   8   1   12.59    0.54
  -5   8  -1   12.90    0.56
   5   8   1   12.69    0.56
   5  -8  -1   12.89    0.66
  -5   8  -1   12.28    0.56
  -5  -8   1   12.26    0.56
  -6   8   1    1.19    0.36
   6   8  -1    1.73    0.38
   6  -8   1    1.04    0.45
  -6   8   1    1.86    0.36
  -6  -8  -1    1.08    0.37
   6   8   1    1.41    0.37
  -6  -8   1    1.73    0.38
   6  -8  -1    0.72    0.50
  -6   8  -1    1.80    0.37
   0  -9   1   18.17    0.64
   0   9   1   18.37    0.67
   0  -9   1   18.28    0.69
   0   9  -1   18.68    0.63
   0   9  -1   17.87    0.67
   0  -9  -1   18.43    0.69
   1  -9   1    6.75    0.39
   1   9  -1    6.94    0.38
  -1   9   1    6.86    0.38
   1  -9   1    7.51    0.36
  -1  -9  -1    6.26    0.40
  -1  -9   1    6.48    0.41
   1  -9  -1    7.53    0.41
  -1   9  -1    7.19    0.38
   1   9   1    7.06    0.35
   1  -9  -1    7.46    0.38
  -1   9  -1    7.15    0.33
   1   9   1    6.98    0.37
  -2  -9  -1   18.62    0.71
   2  -9   1   19.57    0.71
  -2   9   1   19.23    0.71
  -2  -9  -1   18.98    0.66
   2  -9   1   17.88    0.71
   2   9  -1   18.89    0.70
   2  -9  -1   18.75    0.70
   2  -9  -1   19.15    0.71
   2   9   1   18.54    0.69
  -2   9  -1   17.82    0.65
   2   9   1   18.13    0.67
  -2  -9   1   18.51    0.71
  -2   9  -1   18.33    0.69
  -2  -9   1   19.30    0.67
  -3  -9  -1    8.58    0.46
   3  -9   1    9.19    0.49
   3  -9   1    8.95    0.46
   3   9  -1    8.46    0.45
  -3  -9  -1    8.91    0.42
  -3   9   1    7.85    0.44
   3  -9  -1    8.69    0.49
  -3   9  -1    9.02    0.44
  -3  -9   1    9.08    0.47
  -3  -9   1    8.86    0.42
  -3   9  -1    8.28    0.40
   3  -9  -1    8.47    0.44
   3   9   1    7.88    0.43
  -4   9   1   14.69    0.62
  -4  -9  -1   15.36    0.60
  -4  -9  -1   14.70    0.63
   4  -9   1   15.14    0.68
   4   9  -1   14.85    0.62
  -4   9  -1   14.76    0.60
   4   9   1   15.55    0.63
  -4  -9   1   15.86    0.63
  -4   9  -1   15.44    0.63
  -4  -9   1   15.65    0.65
   4  -9  -1   15.12    0.69
  -5   9   1    4.38    0.41
  -5  -9  -1    4.53    0.39
   5  -9   1    3.89    0.50
   5   9  -1    4.23    0.41
   5  -9  -1    4.03    0.51
  -5   9  -1    4.37    0.38
  -5  -9   1    4.22    0.40
   5   9   1    4.76    0.40
  -5   9  -1    4.48    0.40
   6  -9   1    6.30    0.59
  -6  -9  -1    6.93    0.47
  -6  -9   1    5.76    0.47
   6  -9  -1    6.44    0.62
   0 -10   1   31.70    1.11
   0 -10  -1   33.02    1.08
   0  10   1   31.51    1.09
   0 -10  -1   32.40    1.11
   0  10  -1   32.32    1.09
  -1 -10  -1   44.55    1.47
   1 -10   1   44.91    1.47
  -1  10   1   44.48    1.46
   1  10  -1   43.47    1.45
   1  10   1   45.11    1.51
  -1 -10   1   45.96    1.53
  -1  10  -1   46.80    1.52
   1 -10  -1   44.36    1.52
   1 -10  -1   49.19    1.51
   2  10  -1   33.44    1.12
   2 -10   1   31.41    1.13
  -2 -10  -1   32.64    1.14
  -2  10   1   33.76    1.13
   2 -10  -1   34.26    1.16
   2  10   1   32.48    1.14
  -2  10  -1   34.14    1.15
  -2 -10   1   32.83    1.17
  -2 -10   1   34.94    1.13
   2 -10  -1   35.34    1.17
   3  10  -1   10.80    0.51
  -3 -10  -1   10.61    0.54
   3 -10   1   11.66    0.55
   3 -10   1   11.56    0.54
  -3  10   1   10.74    0.52
  -3  10  -1   11.43    0.52
   3 -10  -1   11.79    0.57
  -3 -10   1   10.59    0.54
   3  10   1   11.19    0.52
  -3 -10   1   12.03    0.50
   3 -10  -1   10.75    0.53
   4 -10   1    5.16    0.49
   4  10  -1    5.61    0.42
  -4 -10  -1    4.69    0.43
  -4  10   1    4.40    0.40
  -4 -10   1    5.67    0.41
   4 -10  -1    4.75    0.47
   4  10   1    5.12    0.40
  -4 -10   1    5.12    0.44
  -4  10  -1    5.56    0.42
   5 -10   1    9.19    0.64
   5  10  -1    9.65    0.53
  -5  10   1    9.56    0.53
  -5  10  -1    9.16    0.53
  -5 -10   1   10.50    0.54
   5 -10  -1   10.39    0.65
   5  10   1   10.09    0.54
   0  11   1   36.13    1.22
   0  11  -1   36.68    1.22
   0 -11  -1   36.46    1.24
   0 -11   1   35.66    1.24
  -1 -11  -1   32.39    1.15
  -1  11   1   32.86    1.13
   1  11  -1   33.71    1.13
   1 -11   1   32.59    1.15
   1  11   1   31.74    1.12
  -1  11  -1   32.77    1.14
   1 -11  -1   34.71    1.13
  -1 -11   1   32.70    1.16
   1 -11  -1   33.47    1.15
   2 -11   1   17.99    0.68
  -2 -11  -1   15.83    0.68
  -2  11   1   16.37    0.66
   2  11  -1   15.27    0.65
   2 -11   1   15.24    0.68
   2 -11  -1   17.11    0.69
  -2 -11   1   15.28    0.69
   2 -11  -1   17.31    0.68
  -2  11  -1   16.60    0.67
   2  11   1   15.57    0.64
  -3 -11  -1   13.94    0.65
   3 -11   1   14.43    0.65
   3 -11   1   14.35    0.65
  -3  11   1   14.48    0.63
   3  11  -1   14.56    0.62
  -3 -11   1   14.92    0.67
  -3  11  -1   13.80    0.61
   3 -11  -1   15.34    0.66
   3 -11  -1   14.31    0.64
   3  11   1   13.77    0.61
   4 -11   1    8.15    0.57
   4  11  -1    7.28    0.48
  -4 -11  -1    7.48    0.51
  -4  11   1    8.19    0.50
  -4  11  -1    7.93    0.48
   4  11   1    7.68    0.47
   4 -11  -1    6.80    0.54
  -4 -11   1    7.36    0.53
   5  11  -1    0.76    0.39
   5 -11   1    0.09    0.49
  -5  11   1    0.36    0.37
   5 -11  -1    0.61    0.50
   5  11   1    1.28    0.38
   0  12  -1   15.65    0.64
   0 -12   1   15.27    0.67
   0 -12  -1   15.17    0.67
   0  12   1   14.54    0.63
  -1  12   1    9.66    0.51
  -1 -12  -1    9.83    0.53
   1  12  -1    9.76    0.49
   1 -12   1    8.71    0.53
   1  12   1    8.90    0.47
  -1 -12   1    8.61    0.52
   1 -12  -1   10.13    0.53
  -1  12  -1    9.76    0.50
  -2  12   1    8.30    0.46
  -2 -12  -1    7.28    0.49
   2 -12   1    7.05    0.50
   2  12  -1    7.60    0.44
   2 -12  -1    8.32    0.50
  -2  12  -1    8.66    0.48
   2  12   1    8.09    0.46
  -2 -12   1    7.96    0.52
   2 -12  -1    8.91    0.52
  -3  12   1    5.56    0.44
   3 -12   1    5.35    0.48
  -3 -12  -1    6.01    0.48
   3  12  -1    6.02    0.44
  -3  12  -1    5.71    0.43
   3 -12  -1    5.40    0.50
   3  12   1    5.65    0.42
  -3 -12   1    5.56    0.48
   3 -12  -1    5.48    0.46
   4 -12   1    0.79    0.46
  -4  12   1    1.40    0.40
  -4 -12  -1    1.03    0.39
   4  12  -1    1.57    0.39
  -4  12  -1    0.89    0.38
   4  12   1    1.02    0.36
  -4 -12   1    0.78    0.40
   4 -12  -1    0.85    0.44
   0 -13   1    4.71    0.47
   0  13   1    5.50    0.41
   0 -13  -1    4.85    0.47
   0  13  -1    5.55    0.42
  -1 -13  -1    1.55    0.37
  -1  13   1    0.88    0.34
   1  13  -1    1.31    0.33
   1 -13   1    0.71    0.37
  -1 -13   1    1.11    0.36
   1 -13  -1    0.93    0.36
   1  13   1    1.98    0.35
  -1  13  -1    2.00    0.36
  -2  13   1    1.14    0.36
  -2 -13  -1    0.52    0.35
   2  13  -1    0.56    0.32
   2 -13   1    0.75    0.38
  -2  13  -1    1.04    0.37
  -2 -13   1    0.87    0.37
   2  13   1    0.66    0.33
   2 -13  -1    0.46    0.36
   3 -13   1   -0.27    0.38
   3  13  -1    0.58    0.36
  -3  13   1    0.49    0.36
  -3 -13  -1    0.60    0.37
   3 -13  -1    0.13    0.36
  -3 -13   1   -0.12    0.37
  -3  13  -1    0.12    0.34
   3  13   1    0.37    0.32
   0  14  -1   -0.47    0.33
   0 -14   1   -0.14    0.38
   0  14   1    0.16    0.33
   0 -14  -1    0.21    0.38
   1 -14   1   -0.16    0.37
   1  14  -1    0.00    0.33
  -1 -14  -1   -0.09    0.37
  -1  14   1    0.30    0.35
  -1 -14   1   -0.35    0.38
   1 -14  -1   -0.47    0.38
  -1  14  -1   -0.30    0.35
   2  14  -1    3.05    0.39
  -2 -14  -1    1.62    0.42
  -2  14   1    2.25    0.41
   2 -14   1    1.70    0.43
  -2  14  -1    2.82    0.42
  -2 -14   1    2.62    0.44
   2 -14  -1    2.52    0.44
   2  14   1    3.07    0.40
  -3  14   1    3.86    0.46
  -3 -14  -1    3.44    0.51
   3 -14   1    2.72    0.46
   3  14  -1    3.76    0.41
  -3  14  -1    3.83    0.44
   3  14   1    3.62    0.43
  -3 -14   1    3.49    0.49
   0  15   1    0.54    0.37
   0 -15   1    0.51    0.42
   0 -15  -1    0.59    0.41
   0  15  -1    0.67    0.37
   1 -15   1    3.19    0.48
   1  15  -1    3.68    0.43
  -1 -15  -1    3.28    0.50
  -1  15   1    4.48    0.45
  -1  15  -1    3.90    0.46
   1  15   1    4.56    0.44
  -1 -15   1    3.74    0.51
   1 -15  -1    3.67    0.53
   0   0   2   29.30    0.87
   0   0   2   26.85    0.88
   0   0   2   28.53    0.87
   1   0   2  445.39   13.07
  -1   0   2  420.48   13.05
   1   0  -2  407.18   13.06
  -1   0  -2  418.42   13.05
   1   0   2  443.89   13.07
  -1   0   2  444.17   13.06
  -2   0  -2    0.98    0.13
  -2   0   2    1.02    0.12
   2   0   2    1.06    0.15
  -2   0  -2    1.08    0.10
   2   0  -2    1.00    0.15
  -2   0   2    1.02    0.13
   2   0   2    0.89    0.10
  -3   0   2   84.57    2.69
   3   0  -2   87.65    2.70
  -3   0  -2   86.63    2.69
  -3   0  -2   90.26    2.67
   3   0   2   88.58    2.70
  -3   0  -2   84.14    2.67
  -3   0   2   87.54    2.68
  -4   0   2    1.08    0.21
   4   0  -2    1.13    0.25
  -4   0  -2    1.34    0.21
  -4   0   2    0.99    0.20
  -4   0  -2    1.01    0.15
   4   0   2    1.08    0.26
  -5   0  -2    5.78    0.35
   5   0   2    5.15    0.40
  -5   0   2    5.56    0.34
   5   0  -2    5.78    0.40
  -5   0   2    4.97    0.34
   5   0   2    5.43    0.29
   6   0  -2    4.59    0.34
  -6   0   2    3.70    0.37
  -6   0  -2    3.96    0.37
   6   0   2    4.32    0.43
   6   0  -2    4.87    0.44
   7   0   2    2.95    0.46
   7   0  -2    3.24    0.36
   7   0  -2    3.38    0.48
  -7   0  -2    3.17    0.39
  -7   0   2    3.44    0.41
   0   1  -2  347.29   11.13
   0   1   2  363.19   11.13
   0  -1  -2  381.94   11.25
   0  -1   2  379.42   11.14
   0  -1  -2  370.72   11.14
   0  -1   2  350.91   11.24
   0   1   2  368.52   11.15
  -1  -1  -2    7.13    0.25
  -1   1   2    7.50    0.25
   1  -1   2    8.09    0.26
  -1  -1  -2    7.40    0.25
   1   1  -2    7.36    0.25
   1  -1   2    7.12    0.27
   1   1  -2    7.47    0.26
  -1   1   2    7.44    0.26
   1  -1  -2    6.82    0.26
   1   1   2    6.91    0.23
   1  -1  -2    6.07    0.23
   1   1   2    7.82    0.26
  -1  -1   2    6.78    0.23
  -1   1  -2    7.01    0.25
  -1  -1   2    7.43    0.25
   2  -1   2   76.51    2.30
  -2   1   2   72.96    2.28
   2   1  -2   71.24    2.28
   2  -1   2   76.98    2.28
  -2  -1  -2   72.73    2.28
  -2   1   2   74.70    2.28
  -2  -1  -2   74.28    2.28
  -2  -1   2   75.50    2.29
   2  -1  -2   71.34    2.30
  -2   1  -2   71.94    2.29
   2   1   2   76.45    2.28
   2   1   2   75.02    2.30
  -2   1  -2   74.69    2.28
  -2  -1   2   76.35    2.29
   3  -1   2   34.96    1.14
   3   1  -2   35.58    1.13
  -3   1   2   34.41    1.11
   3  -1   2   35.01    1.10
  -3   1   2   35.45    1.11
  -3  -1  -2   33.93    1.09
  -3  -1  -2   35.44    1.11
   3   1   2   37.81    1.17
  -3  -1   2   36.14    1.15
   3  -1  -2   35.93    1.17
  -3   1  -2   36.27    1.13
  -3   1  -2   34.41    1.15
   3   1   2   36.14    1.13
   4   1  -2   30.32    0.95
   4  -1   2   29.96    1.00
  -4  -1  -2   27.02    0.93
  -4   1   2   28.83    0.96
   4   1  -2   29.60    0.99
  -4   1   2   29.25    0.95
  -4  -1  -2   29.09    0.96
   4   1   2   31.55    1.03
   4   1   2   30.08    0.97
   4  -1  -2   30.50    1.03
  -4  -1   2   29.27    1.00
  -4   1  -2   30.11    0.97
  -4   1  -2   29.93    1.00
  -5   1   2   11.79    0.49
   5  -1   2   12.76    0.57
   5   1  -2   12.81    0.56
  -5   1   2   11.44    0.51
  -5  -1  -2   12.42    0.51
   5   1  -2   11.74    0.49
   5   1   2   12.36    0.57
   5  -1  -2   12.21    0.55
  -5  -1   2   11.32    0.51
  -5   1  -2   11.83    0.47
   5   1   2   12.11    0.47
  -5   1  -2   12.54    0.52
   6  -1   2    4.09    0.40
  -6   1   2    4.41    0.34
   6   1  -2    4.64    0.44
   6   1  -2    4.58    0.34
  -6   1   2    4.04    0.35
  -6  -1  -2    3.99    0.37
  -6  -1   2    4.19    0.37
  -6   1  -2    4.31    0.37
   6  -1  -2    4.69    0.44
   6   1   2    4.05    0.43
  -7  -1  -2    3.29    0.39
   7  -1   2    3.01    0.45
  -7   1   2    3.07    0.41
   7   1  -2    2.93    0.36
   7   1  -2    3.06    0.43
   7  -1  -2    3.56    0.48
   7   1   2    3.49    0.46
   7  -1  -2    2.85    0.36
  -7   1  -2    3.51    0.41
  -7  -1   2    2.84    0.39
   0   2   2   54.96    1.66
   0  -2   2   53.87    1.66
   0  -2  -2   54.14    1.66
   0   2   2   55.75    1.67
   0   2  -2   50.89    1.65
   1   2  -2   70.57    2.37
  -1   2   2   77.66    2.36
   1  -2   2   81.81    2.37
   1   2  -2   76.96    2.37
  -1   2   2   75.49    2.37
  -1  -2  -2   80.46    2.37
   1  -2   2   78.10    2.38
  -1  -2  -2   78.40    2.37
   1   2   2   75.99    2.41
  -1  -2   2   78.74    2.40
  -1   2  -2   77.59    2.41
   1   2   2   80.05    2.40
   1  -2  -2   80.36    2.42
   1  -2  -2   79.66    2.40
  -1   2  -2   75.01    2.40
  -1  -2   2   80.18    2.40
   2   2  -2   23.81    0.76
   2   2  -2   22.17    0.76
   2  -2   2   23.68    0.77
   2  -2   2   23.47    0.75
  -2  -2  -2   24.27    0.75
  -2  -2  -2   24.36    0.75
  -2   2   2   23.71    0.76
  -2   2   2   23.35    0.75
   2  -2  -2   23.63    0.77
  -2   2  -2   23.77    0.76
  -2  -2   2   23.83    0.75
  -2   2  -2   23.34    0.74
   2   2   2   23.67    0.75
   2   2   2   22.87    0.77
  -2  -2   2   24.49    0.76
  -3  -2  -2   36.22    1.15
   3  -2   2   38.46    1.19
   3   2  -2   36.59    1.15
  -3  -2  -2   35.79    1.16
  -3   2   2   35.66    1.16
  -3   2   2   37.22    1.15
   3   2  -2   35.24    1.17
   3  -2   2   36.09    1.14
  -3   2  -2   36.64    1.15
  -3   2  -2   36.73    1.18
  -3  -2   2   35.64    1.15
   3   2   2   37.03    1.16
  -3  -2   2   37.83    1.18
   3  -2  -2   36.66    1.20
   3   2   2   37.70    1.20
   4  -2   2   36.63    1.20
  -4   2   2   37.86    1.23
   4   2  -2   38.48    1.26
  -4   2   2   37.92    1.23
  -4  -2  -2   39.43    1.24
  -4  -2  -2   38.28    1.21
   4   2  -2   38.66    1.23
   4  -2   2   39.38    1.28
   4   2   2   42.08    1.30
   4  -2  -2   38.16    1.30
  -4   2  -2   39.32    1.27
  -4   2  -2   37.96    1.24
  -4  -2   2   38.65    1.27
   4   2   2   39.59    1.24
  -5  -2  -2   10.30    0.47
   5   2  -2   11.84    0.54
   5  -2   2   11.36    0.54
   5   2  -2   10.48    0.46
  -5   2   2    9.80    0.47
  -5   2   2   10.76    0.46
  -5   2  -2    9.88    0.47
  -5   2  -2   10.87    0.43
  -5  -2   2    9.39    0.47
   5   2   2   11.43    0.53
   5  -2  -2   11.40    0.54
   5   2   2   10.07    0.43
   6  -2   2   10.32    0.58
  -6  -2  -2   10.97    0.51
   6   2  -2   12.22    0.59
  -6   2   2   11.28    0.53
   6   2  -2   11.08    0.50
  -6   2   2   11.70    0.50
  -6   2  -2   10.39    0.51
   6   2   2   10.43    0.55
   6  -2  -2   11.18    0.58
  -6  -2   2   10.42    0.51
  -7   2   2    4.29    0.43
   7   2  -2    3.75    0.38
  -7  -2  -2    4.32    0.41
   7  -2   2    4.11    0.48
   7   2  -2    4.16    0.46
   7   2   2    4.43    0.46
   7  -2  -2    4.65    0.52
  -7  -2   2    4.06    0.42
  -7   2  -2    4.03    0.43
   0   3   2   88.53    2.79
   0  -3   2   94.00    2.80
   0  -3  -2   97.71    2.80
   0   3   2   91.01    2.80
   0  -3   2   87.61    2.79
   0   3  -2   88.43    2.79
   1  -3   2   66.40    1.95
  -1   3   2   61.02    1.94
   1  -3   2   62.54    1.94
  -1  -3  -2   66.35    1.95
   1   3  -2   56.51    1.93
  -1   3   2   63.40    1.93
   1   3  -2   60.22    1.94
  -1  -3  -2   68.65    1.94
   1   3   2   61.68    1.97
   1   3   2   63.82    1.96
  -1   3  -2   59.81    1.96
   1  -3  -2   63.91    1.97
   1  -3  -2   66.76    1.96
  -1  -3   2   65.24    1.96
  -1   3  -2   63.35    1.96
  -1  -3   2   64.89    1.96
  -2   3   2   62.14    1.94
   2  -3   2   62.91    1.95
   2   3  -2   59.09    1.94
  -2  -3  -2   65.17    1.94
   2   3  -2   62.38    1.94
  -2   3   2   60.74    1.93
  -2  -3  -2   65.08    1.94
   2  -3   2   64.95    1.94
  -2   3  -2   61.76    1.94
  -2   3  -2   59.96    1.93
  -2  -3   2   65.86    1.94
   2   3   2   62.48    1.95
  -2  -3   2   65.37    1.95
   2   3   2   61.80    1.93
   2  -3  -2   61.70    1.93
   2  -3  -2   63.20    1.96
  -3   3   2   23.49    0.76
  -3   3   2   22.75    0.75
   3  -3   2   23.42    0.79
   3  -3   2   22.67    0.74
  -3  -3  -2   22.17    0.75
   3   3  -2   21.95    0.77
  -3  -3  -2   23.41    0.76
   3   3  -2   23.46    0.76
   3   3   2   23.48    0.75
  -3   3  -2   23.15    0.78
   3   3   2   23.32    0.79
   3  -3  -2   23.87    0.80
  -3   3  -2   23.02    0.75
  -3  -3   2   23.53    0.78
  -3  -3   2   22.73    0.75
   4   3  -2   31.25    1.00
  -4   3   2   29.83    0.99
  -4  -3  -2   30.50    1.00
   4   3  -2   30.48    1.02
  -4   3   2   29.70    1.00
   4  -3   2   30.29    1.04
   4  -3   2   29.71    0.97
  -4  -3  -2   30.73    0.99
  -4  -3   2   29.32    1.00
   4   3   2   30.93    1.03
  -4   3  -2   29.50    1.00
  -4   3  -2   29.71    0.97
   4   3   2   30.26    0.98
   4  -3  -2   31.06    1.04
   5   3  -2   18.57    0.68
   5  -3   2   18.83    0.76
  -5  -3  -2   17.69    0.68
  -5   3   2   18.85    0.67
  -5   3   2   18.50    0.69
   5   3  -2   18.36    0.72
  -5   3  -2   18.15    0.64
   5   3   2   19.54    0.72
  -5  -3   2   16.99    0.67
   5   3   2   18.25    0.65
   5  -3  -2   17.77    0.74
  -5   3  -2   18.04    0.69
  -6  -3  -2    3.43    0.35
   6   3  -2    2.71    0.33
   6   3  -2    3.69    0.39
  -6   3   2    3.75    0.36
   6  -3   2    3.50    0.42
  -6   3   2    3.58    0.34
   6  -3  -2    4.13    0.45
  -6   3  -2    3.93    0.37
  -6  -3   2    3.29    0.36
   6   3   2    3.71    0.40
  -7  -3  -2    1.62    0.38
  -7   3   2    1.54    0.37
   7   3  -2    2.06    0.43
   7  -3   2    1.69    0.48
   7   3  -2    1.01    0.34
   7  -3  -2    1.58    0.49
  -7  -3   2    1.36    0.37
  -7   3  -2    1.38    0.40
   7   3   2    1.72    0.42
   0   4  -2   30.87    0.98
   0   4   2   30.54    0.98
   0  -4   2   30.28    0.96
   0  -4   2   31.14    0.98
   0  -4  -2   33.00    0.99
   0   4   2   30.74    0.99
   1   4  -2   78.49    2.72
  -1  -4  -2   98.48    2.72
   1  -4   2   88.72    2.73
  -1   4   2   85.78    2.73
  -1  -4  -2   94.55    2.74
   1   4  -2   83.45    2.73
   1  -4   2   92.31    2.74
  -1   4   2   89.80    2.71
   1  -4  -2   89.77    2.75
   1   4   2   87.99    2.76
   1   4   2   90.56    2.75
  -1  -4   2   92.48    2.76
   1  -4  -2   90.97    2.77
  -1   4  -2   85.63    2.75
  -1  -4   2   91.09    2.75
  -1   4  -2   88.34    2.75
  -2   4   2   48.89    1.50
   2  -4   2   48.78    1.49
  -2  -4  -2   49.68    1.48
   2  -4   2   48.18    1.50
  -2  -4  -2   48.77    1.50
   2   4  -2   45.51    1.49
  -2   4   2   47.89    1.48
   2   4  -2   44.25    1.48
   2   4   2   44.95    1.47
   2  -4  -2   47.76    1.49
  -2   4  -2   45.31    1.47
  -2  -4   2   49.06    1.47
   2  -4  -2   45.64    1.45
  -2  -4   2   49.41    1.47
  -2   4  -2   46.03    1.46
   2   4   2   46.39    1.46
   3   4  -2   62.56    1.94
  -3   4   2   60.30    1.93
  -3  -4  -2   62.37    1.93
   3  -4   2   62.63    1.96
  -3   4   2   61.51    1.93
   3  -4   2   62.67    1.93
   3   4  -2   61.23    1.94
  -3  -4  -2   62.36    1.93
   3   4   2   61.46    1.91
   3   4   2   60.20    1.94
  -3  -4   2   62.72    1.92
  -3   4  -2   61.29    1.93
  -3  -4   2   63.39    1.93
  -3   4  -2   62.16    1.91
   3  -4  -2   61.47    1.95
   3  -4  -2   60.23    1.90
  -4   4   2    3.68    0.27
  -4  -4  -2    3.48    0.25
   4   4  -2    3.87    0.28
   4  -4   2    3.32    0.23
  -4   4   2    3.65    0.27
   4  -4   2    3.63    0.35
  -4  -4  -2    3.22    0.26
   4   4  -2    3.30    0.31
   4   4   2    3.72    0.27
  -4   4  -2    3.75    0.25
  -4  -4   2    3.76    0.26
   4   4   2    4.18    0.32
  -4  -4   2    3.97    0.29
  -4   4  -2    4.81    0.30
   4  -4  -2    4.28    0.37
   5   4  -2    7.70    0.40
   5  -4   2    7.86    0.47
  -5  -4  -2    7.01    0.39
  -5   4   2    7.34    0.40
   5   4  -2    7.45    0.45
  -5   4   2    7.76    0.39
   5   4   2    8.25    0.38
  -5  -4   2    6.59    0.40
   5  -4  -2    7.80    0.51
  -5   4  -2    7.78    0.37
   5   4   2    7.52    0.45
  -5   4  -2    7.81    0.42
  -6   4   2    0.34    0.29
   6  -4   2    0.32    0.37
   6   4  -2    0.80    0.29
  -6   4   2    0.44    0.29
  -6  -4  -2    0.50    0.31
   6   4  -2    0.64    0.34
  -6   4  -2    1.10    0.33
  -6  -4   2    0.50    0.30
   6  -4  -2    0.19    0.40
   6   4   2    0.39    0.34
  -7  -4  -2    1.22    0.37
   7  -4   2    1.05    0.46
   7   4  -2    0.28    0.34
  -7   4   2    0.80    0.37
   7  -4  -2    1.40    0.49
  -7  -4   2    0.95    0.37
   7   4   2    1.07    0.40
  -7   4  -2    1.17    0.39
   0  -5  -2   86.63    2.58
   0   5  -2   81.69    2.57
   0   5   2   83.44    2.57
   0  -5   2   84.34    2.55
   0   5   2   83.23    2.58
   0  -5   2   81.19    2.57
   1  -5   2   13.28    0.43
  -1   5   2   11.40    0.40
  -1  -5  -2   13.47    0.45
  -1  -5  -2   12.70    0.41
   1   5  -2   10.45    0.40
   1  -5   2   13.07    0.44
  -1   5   2   12.35    0.44
   1   5  -2   12.42    0.44
   1   5   2   11.39    0.45
  -1  -5   2   13.27    0.45
  -1   5  -2   12.72    0.45
  -1  -5   2   13.88    0.47
   1  -5  -2   13.53    0.46
  -1   5  -2   12.85    0.46
   1  -5  -2   13.51    0.48
   1   5   2   12.97    0.46
   2   5  -2   45.30    1.49
   2   5  -2   46.73    1.51
  -2   5   2   46.79    1.49
  -2  -5  -2   49.69    1.52
   2  -5   2   49.86    1.52
  -2  -5  -2   51.20    1.50
  -2   5   2   45.38    1.51
   2  -5   2   49.87    1.51
  -2  -5   2   50.68    1.54
  -2  -5   2   50.03    1.54
  -2   5  -2   47.39    1.53
  -2   5  -2   48.80    1.54
   2  -5  -2   50.68    1.56
   2   5   2   48.48    1.54
   2  -5  -2   47.83    1.53
   2   5   2   47.90    1.53
   3  -5   2    7.11    0.37
  -3  -5  -2    7.19    0.33
  -3   5   2    6.37    0.31
  -3   5   2    6.92    0.34
  -3  -5  -2    7.37    0.32
   3  -5   2    6.83    0.31
   3   5  -2    6.74    0.33
   3   5  -2    6.71    0.32
   3  -5  -2    5.83    0.29
   3   5   2    7.25    0.32
  -3  -5   2    6.80    0.32
  -3   5  -2    7.12    0.31
  -3  -5   2    6.89    0.33
  -3   5  -2    7.05    0.32
   3   5   2    6.19    0.33
   3  -5  -2    7.13    0.39
  -4  -5  -2    9.70    0.42
  -4  -5  -2    9.44    0.42
  -4   5   2    9.38    0.41
   4   5  -2   10.21    0.43
   4  -5   2    9.58    0.48
   4   5  -2    9.22    0.43
  -4   5   2    9.79    0.43
  -4   5  -2    9.81    0.41
   4   5   2   10.39    0.42
  -4  -5   2    9.33    0.42
   4  -5  -2   10.00    0.50
  -4   5  -2    9.37    0.43
   4   5   2    9.89    0.45
  -4  -5   2    9.37    0.43
  -5  -5  -2    0.73    0.27
  -5   5   2    0.92    0.28
   5   5  -2    0.35    0.29
  -5   5   2    0.98    0.27
   5  -5   2    0.24    0.34
   5   5  -2    1.35    0.28
  -5   5  -2    0.93    0.24
  -5  -5   2    0.52    0.28
   5  -5  -2    0.99    0.37
   5   5   2    0.78    0.26
   5   5   2    1.25    0.31
  -5   5  -2    1.01    0.28
  -6   5   2    0.02    0.31
  -6   5   2    0.28    0.32
   6  -5   2    0.00    0.41
  -6  -5  -2   -0.06    0.30
   6   5  -2    0.41    0.30
   6   5   2    0.21    0.35
   6  -5  -2    0.43    0.43
  -6   5  -2    0.33    0.32
  -6  -5   2   -0.04    0.31
   0   6   2    5.16    0.26
   0  -6   2    4.94    0.26
   0  -6  -2    5.28    0.27
   0   6  -2    5.76    0.27
   0  -6   2    4.70    0.22
   0   6   2    5.09    0.26
   1   6  -2    7.52    0.31
  -1   6   2    8.23    0.31
  -1   6   2    9.44    0.36
   1  -6   2    9.61    0.35
   1  -6   2    9.78    0.37
   1   6  -2    8.99    0.36
  -1  -6  -2    8.71    0.32
  -1  -6  -2    9.79    0.37
  -1   6  -2    9.59    0.37
  -1  -6   2    9.57    0.37
  -1  -6   2    9.74    0.39
  -1   6  -2    9.54    0.38
   1   6   2    9.68    0.38
   1  -6  -2   10.10    0.40
   1  -6  -2    9.53    0.38
   1   6   2    9.02    0.37
  -2  -6  -2   45.29    1.32
  -2   6   2   41.02    1.34
   2  -6   2   42.72    1.35
   2   6  -2   40.25    1.34
  -2   6   2   40.96    1.31
   2  -6   2   42.02    1.35
   2   6  -2   40.19    1.32
  -2  -6  -2   44.34    1.35
  -2  -6   2   43.61    1.36
   2  -6  -2   42.09    1.34
   2   6   2   40.57    1.35
   2  -6  -2   43.17    1.37
  -2   6  -2   40.34    1.34
  -2   6  -2   42.71    1.34
  -2  -6   2   43.01    1.34
   2   6   2   42.44    1.34
  -3  -6  -2   13.90    0.50
   3   6  -2   14.32    0.52
   3  -6   2   13.06    0.56
  -3  -6  -2   13.90    0.53
  -3   6   2   13.30    0.52
   3   6  -2   12.79    0.50
   3  -6   2   13.24    0.51
  -3   6   2   13.50    0.49
   3  -6  -2   14.06    0.57
  -3   6  -2   13.41    0.51
  -3  -6   2   13.41    0.52
  -3   6  -2   13.51    0.51
   3   6   2   13.97    0.51
  -3  -6   2   13.89    0.53
   3  -6  -2   12.79    0.50
   3   6   2   13.29    0.53
   4  -6   2    9.09    0.49
   4   6  -2    7.39    0.40
  -4  -6  -2    7.95    0.40
  -4   6   2    8.08    0.39
   4   6  -2    8.56    0.41
  -4   6   2    9.03    0.41
  -4  -6  -2    8.21    0.39
  -4   6  -2    8.46    0.39
  -4  -6   2    8.37    0.41
  -4   6  -2    7.81    0.41
   4   6   2    8.84    0.43
   4   6   2    7.97    0.40
   4  -6  -2    8.84    0.50
  -4  -6   2    7.83    0.41
  -5  -6  -2    1.04    0.28
   5  -6   2    0.87    0.36
  -5   6   2    1.05    0.28
  -5   6   2    1.06    0.28
   5   6  -2    1.17    0.29
  -5   6  -2    0.99    0.26
  -5   6  -2    0.76    0.29
   5   6   2    1.28    0.31
   5  -6  -2    0.63    0.37
  -5  -6   2    1.09    0.29
   5   6   2    0.95    0.28
   6  -6   2    5.59    0.52
  -6   6   2    5.73    0.42
  -6   6   2    6.05    0.42
   6   6  -2    5.43    0.42
  -6  -6  -2    5.80    0.41
  -6   6  -2    5.71    0.44
   6   6   2    6.31    0.47
  -6  -6   2    5.53    0.42
   6  -6  -2    5.67    0.54
   0  -7   2    0.84    0.19
   0   7  -2    0.60    0.18
   0  -7   2    0.73    0.14
   0   7   2    0.67    0.17
   0  -7  -2    0.60    0.18
   0   7  -2    1.04    0.16
   0   7   2    0.81    0.19
   1   7  -2   30.42    1.00
   1  -7   2   30.70    0.98
  -1   7   2   31.16    1.00
  -1  -7  -2   30.93    0.96
   1   7  -2   29.06    0.96
  -1  -7  -2   31.64    1.01
  -1   7   2   28.48    0.95
   1  -7   2   30.91    1.01
   1  -7  -2   30.80    1.02
  -1  -7   2   31.38    1.02
   1   7   2   31.25    1.01
   1  -7  -2   31.50    1.02
   1   7   2   29.28    1.01
  -1   7  -2   30.14    1.01
  -1  -7   2   30.88    1.00
  -1   7  -2   31.79    1.00
   2   7  -2    4.11    0.28
  -2   7   2    3.80    0.21
  -2  -7  -2    4.04    0.23
   2  -7   2    4.23    0.30
   2   7  -2    3.22    0.22
  -2   7   2    4.55    0.28
  -2  -7  -2    4.05    0.29
   2  -7   2    4.54    0.29
  -2  -7   2    4.15    0.26
  -2  -7   2    3.81    0.31
   2  -7  -2    4.92    0.33
  -2   7  -2    4.13    0.26
   2  -7  -2    3.90    0.29
  -2   7  -2    4.68    0.28
   2   7   2    4.13    0.28
   2   7   2    4.17    0.26
  -3  -7  -2   55.62    1.71
  -3   7   2   52.42    1.70
   3  -7   2   54.55    1.73
   3  -7   2   54.92    1.75
  -3  -7  -2   54.28    1.74
   3   7  -2   55.63    1.74
  -3   7   2   52.92    1.73
  -3  -7   2   56.15    1.72
   3  -7  -2   54.42    1.75
  -3   7  -2   52.17    1.70
   3   7   2   53.43    1.72
   3  -7  -2   52.71    1.70
  -3   7  -2   51.65    1.70
   3   7   2   52.83    1.70
  -3  -7   2   56.03    1.71
  -4  -7  -2   10.02    0.47
   4  -7   2    9.72    0.54
  -4   7   2   10.75    0.48
  -4  -7  -2   10.27    0.45
  -4   7   2   10.48    0.44
   4   7  -2   10.30    0.48
  -4   7  -2   10.61    0.46
  -4  -7   2   10.34    0.47
  -4   7  -2    9.73    0.46
  -4  -7   2   10.49    0.48
   4   7   2   10.02    0.48
   4  -7  -2   10.52    0.55
   4   7   2   10.08    0.46
   5  -7   2    5.98    0.47
  -5   7   2    5.30    0.37
   5   7  -2    5.91    0.40
  -5  -7  -2    5.87    0.37
  -5   7   2    6.27    0.40
  -5  -7   2    5.71    0.39
   5   7   2    6.41    0.38
   5  -7  -2    5.24    0.48
  -5   7  -2    5.67    0.38
   5   7   2    5.47    0.40
   6   7  -2    1.69    0.37
  -6   7   2    1.52    0.37
   6  -7   2    1.30    0.47
  -6   7   2    1.37    0.35
  -6  -7  -2    1.74    0.35
  -6   7  -2    2.06    0.37
  -6  -7   2    1.75    0.36
   6  -7  -2    1.24    0.49
   0  -8   2   72.19    2.33
   0   8   2   73.11    2.32
   0  -8  -2   74.63    2.33
   0   8  -2   73.32    2.32
   0   8  -2   77.78    2.31
   0   8   2   73.97    2.32
   1   8  -2   12.39    0.47
  -1   8   2   13.57    0.53
  -1  -8  -2   14.14    0.54
   1   8  -2   14.65    0.53
   1  -8   2   13.99    0.54
  -1  -8  -2   13.05    0.47
   1  -8   2   13.56    0.50
   1  -8  -2   14.91    0.56
  -1   8  -2   14.42    0.55
   1   8   2   13.56    0.53
  -1   8  -2   14.01    0.52
   1   8   2   14.35    0.54
   1  -8  -2   14.29    0.56
  -1  -8   2   14.91    0.57
   2  -8   2   69.37    2.15
  -2  -8  -2   70.70    2.12
   2  -8   2   69.02    2.15
  -2   8   2   66.73    2.15
  -2  -8  -2   66.43    2.16
  -2   8   2   66.54    2.10
   2   8  -2   68.01    2.15
   2   8   2   66.60    2.12
   2  -8  -2   68.57    2.15
  -2   8  -2   63.53    2.12
  -2  -8   2   68.83    2.12
   2   8   2   66.99    2.13
  -2   8  -2   66.22    2.11
  -2  -8   2   71.61    2.15
   2  -8  -2   67.47    2.13
  -3   8   2    3.32    0.30
   3   8  -2    2.86    0.32
   3  -8   2    2.52    0.36
  -3  -8  -2    2.47    0.32
   3  -8   2    2.90    0.31
  -3  -8  -2    2.29    0.27
  -3   8   2    2.98    0.24
   3   8   2    2.57    0.28
  -3  -8   2    2.13    0.28
   3   8   2    2.66    0.29
   3  -8  -2    2.88    0.36
  -3   8  -2    2.92    0.28
  -3  -8   2    2.59    0.32
  -3   8  -2    2.87    0.27
   3  -8  -2    2.55    0.29
   4  -8   2   14.36    0.66
  -4   8   2   15.17    0.61
  -4  -8  -2   14.59    0.58
  -4  -8  -2   14.66    0.61
   4   8  -2   15.42    0.61
  -4  -8   2   15.03    0.60
   4   8   2   14.73    0.59
  -4   8  -2   14.70    0.59
   4   8   2   14.35    0.60
  -4   8  -2   14.01    0.58
  -4  -8   2   14.81    0.62
   4  -8  -2   14.08    0.67
   5   8  -2    3.66    0.38
   5  -8   2    2.70    0.45
  -5   8   2    4.25    0.38
  -5  -8  -2    3.37    0.35
  -5   8  -2    3.74    0.36
   5   8   2    4.50    0.37
  -5  -8   2    3.46    0.37
   5  -8  -2    3.45    0.48
   6  -8   2    2.58    0.52
  -6  -8  -2    2.84    0.39
   6   8  -2    3.06    0.42
  -6   8   2    3.79    0.41
  -6  -8   2    2.42    0.40
   6  -8  -2    2.56    0.52
  -6   8  -2    2.91    0.41
   0   9   2   15.81    0.61
   0   9  -2   15.37    0.60
   0   9  -2   16.58    0.57
   0  -9   2   15.63    0.62
   0   9   2   15.81    0.59
   0  -9  -2   15.88    0.62
   1   9  -2   69.23    2.25
  -1  -9  -2   70.95    2.26
   1  -9   2   73.34    2.26
  -1   9   2   71.78    2.25
   1  -9  -2   74.78    2.27
  -1   9  -2   74.48    2.25
  -1   9  -2   69.90    2.26
   1  -9  -2   72.13    2.28
   1   9   2   70.94    2.26
  -1  -9   2   70.48    2.28
   1   9   2   70.14    2.26
  -2  -9  -2   11.53    0.52
   2   9  -2   11.97    0.51
   2  -9   2   11.53    0.51
   2  -9   2   11.49    0.51
  -2   9   2   11.28    0.50
   2  -9  -2   12.55    0.54
   2   9   2   11.07    0.50
   2  -9  -2   12.09    0.52
  -2  -9   2   12.28    0.54
  -2  -9   2   11.99    0.49
  -2   9  -2   11.30    0.47
   2   9   2   11.26    0.49
  -2   9  -2   12.27    0.51
  -3  -9  -2   18.67    0.66
   3  -9   2   18.75    0.71
  -3   9   2   17.66    0.69
   3  -9   2   18.64    0.73
   3   9  -2   17.73    0.69
  -3  -9  -2   17.37    0.71
   3  -9  -2   17.51    0.69
  -3  -9   2   19.20    0.69
   3   9   2   18.73    0.69
  -3   9  -2   18.12    0.69
  -3   9  -2   18.25    0.67
   3  -9  -2   17.58    0.74
  -3  -9   2   18.86    0.73
   3   9   2   18.38    0.69
   4  -9   2    2.16    0.40
  -4  -9  -2    1.86    0.31
   4   9  -2    2.08    0.34
  -4  -9  -2    1.83    0.33
  -4   9   2    2.94    0.34
   4  -9  -2    1.84    0.42
  -4   9  -2    2.32    0.32
   4   9   2    2.45    0.33
  -4  -9   2    1.91    0.34
  -4  -9   2    2.56    0.34
  -4   9  -2    2.38    0.31
   5   9  -2    4.21    0.42
   5  -9   2    4.22    0.49
  -5   9   2    4.67    0.41
  -5  -9  -2    3.55    0.38
   5   9   2    4.10    0.39
  -5  -9   2    3.91    0.39
   5  -9  -2    3.29    0.50
  -5   9  -2    3.41    0.37
   0 -10   2   24.12    0.89
   0 -10  -2   23.92    0.88
   0  10  -2   24.32    0.86
   0  10  -2   24.83    0.83
   0  10   2   23.99    0.86
  -1 -10  -2   14.21    0.60
   1 -10   2   13.83    0.60
   1  10  -2   13.66    0.58
  -1  10   2   14.37    0.58
   1  10   2   13.91    0.57
  -1 -10   2   13.06    0.61
   1  10   2   15.73    0.59
   1 -10  -2   14.30    0.58
  -1  10  -2   14.54    0.59
   1 -10  -2   13.89    0.60
  -1  10  -2   13.99    0.55
   2  10  -2   16.63    0.65
   2 -10   2   15.78    0.67
  -2  10   2   17.44    0.66
   2 -10   2   16.71    0.66
  -2 -10  -2   15.72    0.67
   2 -10  -2   16.89    0.67
  -2  10  -2   16.86    0.62
   2 -10  -2   17.04    0.68
   2  10   2   15.82    0.64
  -2  10  -2   16.89    0.66
  -2 -10   2   17.29    0.64
  -2 -10   2   15.96    0.68
   3  10  -2    3.54    0.35
  -3  10   2    3.43    0.35
  -3 -10  -2    3.92    0.37
   3 -10   2    3.19    0.40
   3 -10   2    2.95    0.37
  -3 -10   2    3.10    0.39
   3 -10  -2    3.34    0.36
   3  10   2    3.91    0.34
  -3  10  -2    3.75    0.34
  -3  10  -2    3.68    0.30
   3 -10  -2    3.35    0.41
  -3 -10   2    3.39    0.34
   4  10  -2    4.95    0.42
   4 -10   2    4.18    0.46
  -4  10   2    5.75    0.42
  -4 -10  -2    5.06    0.42
   4  10   2    5.32    0.40
  -4 -10   2    5.01    0.44
   4 -10  -2    5.18    0.50
  -4 -10   2    5.06    0.41
  -4  10  -2    5.27    0.41
   5 -10   2   -0.31    0.43
   5  10  -2   -0.36    0.35
  -5  10   2   -0.01    0.34
   5 -10  -2   -0.01    0.46
  -5 -10   2    0.40    0.37
   5  10   2    0.56    0.34
   0  11  -2    0.41    0.28
   0  11   2    0.77    0.29
   0 -11   2    1.22    0.32
   0 -11  -2    1.02    0.30
   0 -11  -2    1.10    0.30
   1  11  -2    0.73    0.28
   1 -11   2    0.86    0.31
  -1  11   2    0.75    0.30
  -1 -11  -2    0.90    0.29
   1 -11  -2    1.20    0.31
  -1  11  -2    1.05    0.30
  -1 -11   2    0.53    0.31
   1  11   2    0.83    0.28
   1 -11  -2    0.99    0.31
   2  11  -2    3.19    0.35
   2 -11   2    3.17    0.39
  -2 -11  -2    3.09    0.39
  -2  11   2    3.33    0.37
  -2  11  -2    3.44    0.35
  -2 -11   2    3.20    0.40
   2  11   2    3.14    0.34
   2 -11  -2    3.50    0.38
   2 -11  -2    3.66    0.38
  -3 -11  -2    3.86    0.42
   3 -11   2    4.12    0.42
   3  11  -2    4.86    0.40
   3 -11   2    4.21    0.43
  -3  11   2    4.38    0.39
   3 -11  -2    4.81    0.42
  -3 -11   2    4.36    0.43
   3  11   2    4.46    0.37
   3 -11  -2    4.33    0.45
  -3  11  -2    4.59    0.39
   4 -11   2    1.65    0.44
   4  11  -2    1.46    0.36
  -4 -11  -2    1.09    0.36
  -4  11   2    1.15    0.37
  -4  11  -2    0.97    0.35
   4 -11  -2    0.47    0.45
  -4 -11   2    0.42    0.36
   4  11   2    1.12    0.34
   5 -11   2    3.11    0.54
  -5  11   2    3.80    0.45
   5  11  -2    4.46    0.46
   5 -11  -2    3.46    0.55
   5  11   2    3.96    0.42
   0 -12   2   10.31    0.56
   0  12  -2   10.83    0.53
   0 -12  -2   10.36    0.56
   0  12   2   11.36    0.52
   1 -12   2    2.99    0.40
  -1 -12  -2    3.10    0.39
   1  12  -2    3.22    0.35
  -1  12   2    2.58    0.36
  -1  12  -2    2.62    0.34
  -1 -12   2    2.72    0.40
   1 -12  -2    2.52    0.37
   1  12   2    2.47    0.33
   2 -12   2    4.41    0.44
  -2  12   2    4.84    0.42
   2  12  -2    4.52    0.39
  -2 -12  -2    4.54    0.43
   2 -12  -2    4.71    0.44
  -2  12  -2    4.56    0.40
  -2 -12   2    4.33    0.44
   2  12   2    4.52    0.38
   2 -12  -2    4.51    0.43
  -3 -12  -2    0.04    0.33
  -3  12   2    0.53    0.33
   3  12  -2    0.78    0.34
   3 -12   2    0.32    0.35
   3 -12  -2   -0.38    0.39
  -3  12  -2    0.44    0.35
  -3 -12   2    0.18    0.36
   3 -12  -2   -0.33    0.33
   3  12   2    0.45    0.31
   4  12  -2    3.94    0.44
  -4 -12  -2    3.73    0.46
  -4  12   2    3.94    0.45
  -4 -12   2    4.57    0.48
   4 -12  -2    3.21    0.52
   4  12   2    3.80    0.42
  -4  12  -2    3.85    0.44
   0 -13  -2   11.46    0.62
   0  13  -2   12.93    0.59
   0  13   2   12.64    0.57
   0 -13   2   12.38    0.63
   1 -13   2   15.01    0.70
  -1  13   2   15.45    0.66
   1  13  -2   14.98    0.65
  -1 -13  -2   14.43    0.69
  -1 -13   2   15.61    0.71
  -1  13  -2   15.91    0.67
   1 -13  -2   14.83    0.70
   1  13   2   15.47    0.66
   2 -13   2    1.90    0.40
  -2  13   2    2.04    0.37
  -2 -13  -2    1.71    0.38
   2  13  -2    1.81    0.34
   2  13   2    2.07    0.34
  -2 -13   2    1.85    0.40
   2 -13  -2    1.78    0.39
  -2  13  -2    2.66    0.39
   3 -13   2    6.28    0.52
  -3  13   2    6.34    0.48
  -3 -13  -2    5.55    0.51
   3  13  -2    5.75    0.47
   3  13   2    5.89    0.44
  -3 -13   2    6.20    0.52
   3 -13  -2    5.88    0.55
  -3  13  -2    7.02    0.49
   0  14  -2   16.29    0.70
   0 -14   2   15.88    0.76
   0  14   2   15.94    0.69
   0 -14  -2   16.16    0.75
   1  14  -2    2.45    0.39
  -1  14   2    2.78    0.39
   1 -14   2    2.08    0.43
   1 -14  -2    2.07    0.42
  -1  14  -2    2.63    0.41
  -1 -14   2    2.08    0.42
   1  14   2    3.17    0.39
  -2 -14  -2   10.24    0.61
  -2  14   2   11.26    0.59
   2  14  -2   10.52    0.56
   2 -14   2   10.35    0.63
  -2 -14   2   11.56    0.65
  -2  14  -2   11.18    0.59
   2  14   2   10.35    0.56
   2 -14  -2   10.98    0.63
   0  15  -2    0.13    0.37
   0 -15   2    0.53    0.42
   0 -15  -2   -0.19    0.40
   0  15   2   -0.16    0.36
   1  15  -2    7.57    0.50
  -1  15   2    6.47    0.49
  -1 -15  -2    5.88    0.56
   1 -15   2    6.96    0.59
   1 -15  -2    6.70    0.57
   1  15   2    6.74    0.49
  -1 -15   2    6.17    0.57
  -1  15  -2    6.82    0.51
   0   0   3    0.09    0.06
   0   0   3   -0.08    0.04
   0   0   3    0.07    0.05
  -1   0   3   36.09    1.10
   1   0   3   36.90    1.10
   1   0  -3   34.24    1.10
  -1   0   3   36.58    1.10
  -1   0   3   33.92    1.09
   1   0   3   34.68    1.11
  -1   0  -3   35.46    1.10
  -2   0   3   49.13    1.53
   2   0   3   50.61    1.55
  -2   0   3   48.61    1.53
   2   0   3   51.45    1.53
   2   0  -3   47.62    1.54
  -2   0  -3   48.71    1.53
  -3   0   3    2.00    0.19
   3   0  -3    2.13    0.22
   3   0   3    1.61    0.13
   3   0   3    2.04    0.23
  -3   0  -3    1.92    0.19
   3   0   3    1.46    0.15
  -3   0   3    1.73    0.19
   4   0  -3   30.78    1.04
   4   0   3   32.54    1.05
  -4   0   3   30.91    1.01
  -4   0  -3   30.95    1.01
  -4   0  -3   29.56    0.98
  -4   0   3   29.32    1.00
   4   0   3   30.76    0.97
  -5   0   3    0.12    0.25
  -5   0  -3    0.72    0.25
   5   0  -3    0.71    0.31
  -5   0   3    0.88    0.25
   5   0   3    0.81    0.33
  -6   0   3   13.98    0.62
   6   0   3   15.55    0.68
   6   0  -3   14.86    0.67
   6   0  -3   14.22    0.58
  -6   0  -3   15.03    0.61
  -7   0  -3   -0.11    0.34
   7   0  -3    0.13    0.30
   7   0  -3    0.91    0.43
  -7   0   3    0.16    0.36
   7   0   3    0.01    0.39
   0  -1   3    1.01    0.09
   0  -1   3    0.72    0.08
   0   1   3    1.21    0.10
   0  -1  -3    0.90    0.08
   0   1  -3    1.25    0.07
   0   1   3    1.32    0.08
   1  -1   3   84.14    2.56
  -1  -1  -3   85.59    2.55
   1   1  -3   78.65    2.55
  -1   1   3   80.55    2.55
   1  -1   3   86.88    2.56
  -1   1   3   85.03    2.55
   1  -1  -3   73.24    2.47
   1  -1  -3   81.06    2.49
  -1   1  -3   83.73    2.48
  -1  -1   3   79.78    2.48
   1   1   3   84.33    2.49
  -1  -1   3   83.84    2.48
   2   1  -3  123.59    3.80
  -2  -1  -3  124.95    3.79
  -2   1   3  126.47    3.79
   2  -1   3  124.87    3.79
  -2   1   3  120.12    3.79
  -2  -1  -3  124.14    3.79
   2  -1   3  124.49    3.81
  -2  -1   3  127.30    3.83
  -2  -1   3  123.76    3.83
  -2   1  -3  125.89    3.82
  -2  -1   3  128.33    3.82
  -2   1  -3  125.84    3.83
   2   1   3  122.65    3.82
   2  -1  -3  122.64    3.84
   2   1   3  125.96    3.84
  -3  -1  -3   45.39    1.43
   3  -1   3   45.00    1.43
  -3   1   3   45.07    1.44
   3  -1   3   47.11    1.47
  -3   1   3   45.47    1.44
   3   1  -3   45.25    1.45
  -3  -1  -3   47.20    1.44
  -3   1  -3   43.88    1.46
   3   1   3   47.79    1.48
  -3   1  -3   46.73    1.43
  -3  -1   3   47.20    1.46
   3   1   3   46.41    1.43
   3  -1  -3   46.73    1.48
  -3  -1   3   45.45    1.46
  -4   1   3   12.55    0.47
   4   1  -3   12.39    0.50
  -4   1   3   12.05    0.47
  -4  -1  -3   12.21    0.44
   4  -1   3   10.70    0.43
  -4  -1  -3   13.31    0.48
   4  -1   3   12.45    0.53
  -4  -1   3   12.80    0.50
  -4   1  -3   12.08    0.45
   4  -1  -3   13.04    0.54
   4   1   3   12.87    0.46
  -4   1  -3   13.26    0.50
   4   1   3   13.29    0.54
  -5  -1  -3   17.02    0.65
   5   1  -3   16.79    0.63
   5   1  -3   17.65    0.69
   5  -1   3   17.56    0.71
  -5   1   3   17.63    0.64
  -5   1   3   17.15    0.66
   5  -1  -3   17.11    0.70
  -5   1  -3   17.30    0.66
   5   1   3   17.28    0.61
  -5  -1   3   16.72    0.65
   5   1   3   17.89    0.71
  -6   1   3    0.74    0.31
   6   1  -3    1.02    0.36
   6  -1   3    0.79    0.36
   6   1  -3    0.75    0.27
  -6  -1  -3    1.38    0.31
  -6   1   3    0.61    0.29
  -6   1  -3    0.68    0.30
  -6  -1   3    0.31    0.30
   6  -1  -3    1.04    0.37
   6   1   3    1.18    0.38
   7   1  -3    1.21    0.32
  -7  -1  -3    1.08    0.35
   7  -1   3    1.32    0.42
   7   1  -3    1.35    0.43
  -7   1   3    1.76    0.38
  -7   1  -3    1.52    0.38
  -7  -1   3    1.29    0.37
   7   1   3    2.07    0.42
   7  -1  -3    1.38    0.33
   7  -1  -3    2.02    0.47
   0   2   3   75.97    2.26
   0   2   3   73.57    2.24
   0  -2  -3   75.35    2.25
   0  -2   3   75.97    2.25
   0  -2   3   69.37    2.25
   0   2  -3   68.77    2.24
  -1   2   3  201.02    6.14
   1  -2   3  197.25    6.15
  -1  -2  -3  209.18    6.15
  -1  -2  -3  207.41    6.14
   1   2  -3  199.23    6.14
  -1   2   3  192.33    6.14
   1   2  -3  194.61    6.15
   1  -2   3  213.69    6.15
   1  -2  -3  198.32    6.16
  -1   2  -3  195.20    6.16
   1  -2  -3  203.67    6.18
  -1   2  -3  195.26    6.17
  -1  -2   3  203.59    6.17
   1   2   3  209.52    6.18
  -1  -2   3  201.33    6.16
   1   2   3  212.66    6.16
  -2   2   3   62.39    1.85
  -2  -2  -3   60.34    1.85
  -2   2   3   58.12    1.85
   2  -2   3   60.73    1.86
   2   2  -3   59.20    1.85
  -2  -2  -3   60.41    1.85
   2   2  -3   57.36    1.85
   2  -2   3   59.95    1.85
  -2   2  -3   57.15    1.83
  -2  -2   3   61.08    1.84
   2   2   3   57.87    1.83
   2   2   3   62.64    1.87
  -2  -2   3   61.44    1.85
   2  -2  -3   60.95    1.87
  -2   2  -3   57.19    1.85
   3   2  -3   93.01    2.90
  -3   2   3   96.28    2.90
   3  -2   3   96.64    2.89
   3   2  -3   94.79    2.91
  -3  -2  -3   93.24    2.90
   3  -2   3   95.62    2.92
  -3   2   3   90.99    2.90
  -3  -2  -3   92.67    2.89
  -3  -2   3   94.13    2.91
   3   2   3   94.24    2.91
  -3  -2   3   94.55    2.94
   3  -2  -3   95.19    2.95
   3   2   3   98.79    2.96
  -3   2  -3   95.09    2.91
  -3   2  -3   93.89    2.94
  -4   2   3   16.52    0.61
  -4  -2  -3   17.49    0.61
   4   2  -3   16.64    0.63
   4  -2   3   15.69    0.58
  -4   2   3   17.99    0.61
   4  -2   3   17.46    0.66
  -4  -2  -3   17.25    0.59
   4   2  -3   16.78    0.60
  -4   2  -3   16.90    0.62
  -4   2  -3   17.09    0.58
   4  -2  -3   18.18    0.67
   4   2   3   18.07    0.66
   4   2   3   16.65    0.59
  -4  -2   3   16.90    0.63
   5   2  -3   10.46    0.50
  -5   2   3    9.23    0.43
  -5  -2  -3    9.64    0.44
   5   2  -3    9.24    0.43
   5  -2   3   10.20    0.52
  -5   2   3    8.51    0.44
   5  -2  -3   10.00    0.51
  -5   2  -3    9.60    0.45
  -5  -2   3    8.71    0.44
   5   2   3    8.98    0.40
   5   2   3    9.87    0.50
   6   2  -3    1.63    0.30
   6   2  -3    2.06    0.38
  -6  -2  -3    1.57    0.32
  -6   2   3    1.76    0.30
  -6   2   3    1.69    0.33
   6  -2   3    1.63    0.37
   6   2   3    2.15    0.38
  -6   2  -3    1.98    0.33
  -6  -2   3    1.22    0.32
   6  -2  -3    2.03    0.39
   7  -2   3    0.52    0.41
   7   2  -3    0.22    0.31
   7   2  -3   -0.15    0.38
  -7   2   3    0.37    0.33
  -7   2   3    0.46    0.36
  -7  -2  -3    0.03    0.35
  -7   2  -3    0.25    0.36
   7   2   3    0.49    0.39
   7  -2  -3    0.82    0.45
  -7  -2   3    0.16    0.36
   0   3  -3  243.27    7.68
   0  -3  -3  254.45    7.69
   0   3   3  249.83    7.68
   0  -3   3  258.10    7.69
   0   3   3  257.38    7.70
   1  -3   3  135.67    4.02
   1   3  -3  124.36    4.01
  -1   3   3  127.21    4.02
  -1  -3  -3  131.21    4.01
   1  -3   3  129.07    4.02
  -1   3   3  137.27    4.01
  -1  -3  -3  135.92    4.02
   1   3   3  125.83    3.99
   1  -3  -3  130.45    4.00
   1   3   3  134.66    3.98
  -1   3  -3  131.21    3.99
  -1   3  -3  128.42    3.98
   1  -3  -3  131.68    3.98
  -1  -3   3  131.59    3.99
  -1  -3   3  130.08    3.99
  -2  -3  -3  169.95    5.10
  -2   3   3  161.23    5.10
  -2   3   3  169.55    5.09
   2   3  -3  165.67    5.10
  -2  -3  -3  171.92    5.09
   2  -3   3  173.65    5.10
   2  -3   3  169.21    5.11
   2   3  -3  155.55    5.09
  -2   3  -3  158.59    5.06
  -2  -3   3  173.94    5.07
  -2   3  -3  166.47    5.05
   2   3   3  167.36    5.05
   2  -3  -3  158.47    5.05
  -2  -3   3  167.99    5.06
   2   3   3  167.41    5.08
   2  -3  -3  166.15    5.08
   3  -3   3   19.96    0.71
  -3  -3  -3   20.53    0.67
  -3   3   3   19.94    0.67
   3   3  -3   20.87    0.68
  -3  -3  -3   19.31    0.67
   3   3  -3   19.32    0.68
   3  -3   3   20.20    0.67
  -3   3   3   20.58    0.68
   3  -3  -3   20.93    0.73
  -3  -3   3   20.18    0.67
  -3   3  -3   20.29    0.70
   3   3   3   19.97    0.67
  -3   3  -3   20.39    0.66
   3   3   3   20.81    0.71
  -3  -3   3   20.59    0.70
  -4  -3  -3   36.54    1.17
   4  -3   3   37.72    1.22
  -4   3   3   36.36    1.18
   4   3  -3   35.87    1.18
   4  -3   3   36.19    1.16
  -4  -3  -3   36.44    1.18
  -4   3   3   34.77    1.18
   4   3  -3   35.85    1.19
   4   3   3   37.14    1.15
  -4  -3   3   35.72    1.19
   4   3   3   35.73    1.21
  -4   3  -3   36.16    1.15
   4  -3  -3   36.24    1.22
  -4   3  -3   36.42    1.19
   5   3  -3   10.20    0.46
   5   3  -3   10.16    0.51
   5  -3   3   11.39    0.55
  -5  -3  -3   10.58    0.47
  -5   3   3    9.80    0.46
  -5   3   3   10.17    0.46
  -5  -3   3    9.88    0.48
   5   3   3   10.99    0.44
   5  -3  -3   10.86    0.56
   5   3   3   11.49    0.54
  -5   3  -3   10.99    0.50
   6  -3   3    4.62    0.46
   6   3  -3    4.12    0.35
  -6   3   3    4.18    0.37
   6   3  -3    3.95    0.40
  -6  -3  -3    4.24    0.36
  -6   3   3    4.71    0.36
  -6  -3   3    4.16    0.37
   6   3   3    5.11    0.43
   6  -3  -3    4.01    0.48
  -6   3  -3    4.43    0.37
  -7   3   3    1.38    0.36
   7   3  -3    1.43    0.42
   7   3  -3    1.22    0.34
  -7   3   3    1.11    0.39
   7  -3   3    1.69    0.44
  -7  -3  -3    1.69    0.36
   7  -3  -3    0.83    0.46
   7   3   3    2.51    0.43
  -7   3  -3    2.04    0.40
  -7  -3   3    1.43    0.38
   0   4   3   66.27    2.06
   0  -4  -3   68.93    2.06
   0   4   3   63.94    2.05
   0  -4   3   68.48    2.06
   0   4  -3   64.32    2.05
   1   4  -3  115.65    3.68
  -1  -4  -3  124.75    3.67
   1  -4   3  123.60    3.69
  -1  -4  -3  123.28    3.69
   1  -4   3  118.20    3.68
  -1   4   3  116.66    3.69
  -1  -4   3  122.19    3.71
   1   4   3  116.01    3.72
   1  -4  -3  127.14    3.71
   1  -4  -3  125.01    3.73
  -1  -4   3  120.97    3.71
  -1   4  -3  118.06    3.71
   1   4   3  123.07    3.71
  -1   4  -3  117.19    3.71
   2   4  -3   45.77    1.47
  -2  -4  -3   48.73    1.46
  -2   4   3   46.97    1.45
  -2   4   3   45.30    1.47
   2   4  -3   43.81    1.45
   2  -4   3   47.40    1.48
   2  -4   3   48.04    1.47
  -2  -4  -3   49.07    1.48
  -2   4  -3   47.09    1.49
   2   4   3   47.78    1.51
   2  -4  -3   46.00    1.49
  -2  -4   3   50.16    1.50
  -2   4  -3   45.06    1.50
   2   4   3   48.39    1.49
   2  -4  -3   48.63    1.52
  -2  -4   3   49.61    1.50
  -3   4   3   13.00    0.47
   3   4  -3   12.25    0.48
  -3  -4  -3   12.93    0.48
   3  -4   3   13.50    0.48
   3  -4   3   13.27    0.52
  -3  -4  -3   13.49    0.48
   3   4  -3   13.36    0.49
  -3   4   3   13.97    0.49
  -3   4  -3   12.21    0.48
   3  -4  -3   13.41    0.52
  -3  -4   3   12.56    0.46
   3   4   3   13.57    0.46
  -3   4  -3   13.15    0.45
  -3  -4   3   13.02    0.48
   3  -4  -3   11.43    0.44
   3   4   3   13.54    0.50
   4   4  -3   32.70    1.11
   4  -4   3   32.70    1.08
  -4  -4  -3   32.85    1.09
  -4   4   3   33.44    1.10
   4  -4   3   33.43    1.14
   4   4  -3   33.81    1.10
  -4  -4  -3   35.17    1.10
  -4   4   3   33.84    1.10
  -4   4  -3   33.17    1.13
   4   4   3   34.56    1.15
   4   4   3   34.99    1.10
   4  -4  -3   35.09    1.18
  -4  -4   3   33.45    1.12
  -4   4  -3   33.21    1.09
  -5   4   3   20.04    0.71
   5   4  -3   19.16    0.71
  -5   4   3   18.77    0.71
   5   4  -3   18.39    0.73
  -5  -4  -3   18.36    0.70
   5  -4   3   20.42    0.78
   5   4   3   19.63    0.75
   5  -4  -3   19.67    0.79
  -5  -4   3   18.06    0.71
   5   4   3   19.85    0.68
  -5   4  -3   19.40    0.73
   6   4  -3    5.62    0.44
  -6  -4  -3    5.85    0.39
  -6   4   3    4.75    0.38
   6   4  -3    4.84    0.38
   6  -4   3    5.13    0.49
  -6   4   3    4.42    0.39
  -6   4  -3    5.05    0.41
   6  -4  -3    5.00    0.51
  -6  -4   3    4.76    0.39
   6   4   3    5.82    0.44
   7  -4   3    0.07    0.45
  -7   4   3    1.09    0.39
  -7   4   3    0.60    0.35
   7   4  -3    0.22    0.34
  -7  -4  -3    0.85    0.37
   7  -4  -3    0.75    0.48
   7   4   3    0.66    0.40
  -7  -4   3    1.03    0.38
  -7   4  -3    0.90    0.39
   0  -5   3    0.19    0.08
   0  -5   3    0.03    0.13
   0   5  -3    0.07    0.13
   0   5   3    0.17    0.13
   0  -5  -3   -0.01    0.12
   0   5   3    0.14    0.13
   1   5  -3   17.95    0.62
   1  -5   3   19.08    0.62
  -1  -5  -3   18.76    0.62
   1  -5   3   17.73    0.60
  -1   5   3   17.65    0.62
  -1  -5  -3   18.32    0.58
   1   5   3   18.20    0.63
  -1   5  -3   17.38    0.62
   1  -5  -3   19.61    0.65
  -1  -5   3   18.44    0.63
  -1   5  -3   18.45    0.62
   1  -5  -3   18.60    0.62
   1   5   3   19.35    0.62
  -1  -5   3   18.61    0.62
  -2   5   3    0.55    0.16
   2   5  -3    0.24    0.16
  -2  -5  -3    0.08    0.14
  -2   5   3    0.42    0.11
   2   5  -3    0.14    0.12
  -2  -5  -3    0.21    0.13
   2  -5   3    0.47    0.15
   2  -5   3    0.16    0.18
   2  -5  -3    0.40    0.20
  -2   5  -3    0.36    0.15
  -2   5  -3    0.43    0.16
   2   5   3    0.35    0.15
   2  -5  -3    0.31    0.14
  -2  -5   3    0.23    0.15
   2   5   3    0.49    0.15
  -2  -5   3    0.70    0.17
   3  -5   3   30.97    1.04
  -3  -5  -3   31.56    1.02
   3   5  -3   32.59    1.02
   3  -5   3   31.93    1.01
   3   5  -3   28.17    1.00
  -3  -5  -3   32.16    1.00
  -3   5   3   30.99    1.02
  -3   5   3   30.02    1.00
   3   5   3   32.10    1.03
  -3   5  -3   31.96    1.03
   3   5   3   33.66    1.06
  -3  -5   3   32.74    1.04
   3  -5  -3   31.84    1.08
   3  -5  -3   29.23    1.01
  -3  -5   3   32.42    1.04
  -3   5  -3   31.32    1.05
   4  -5   3    1.66    0.21
  -4   5   3    1.57    0.24
   4  -5   3    0.96    0.31
   4   5  -3    1.00    0.25
  -4  -5  -3    0.82    0.22
  -4   5   3    0.69    0.23
  -4  -5  -3    0.78    0.21
   4   5  -3    1.12    0.25
   4   5   3    1.01    0.22
  -4  -5   3    1.01    0.25
   4  -5  -3    0.98    0.33
  -4   5  -3    1.09    0.26
  -4   5  -3    1.04    0.20
   4   5   3    1.26    0.27
   5  -5   3   16.52    0.71
   5   5  -3   16.86    0.65
  -5   5   3   17.21    0.65
  -5   5   3   16.95    0.65
  -5  -5  -3   16.54    0.64
  -5  -5   3   15.93    0.66
   5   5   3   18.33    0.70
   5   5   3   17.70    0.64
  -5   5  -3   17.23    0.67
   5  -5  -3   16.73    0.74
  -6  -5  -3    3.22    0.36
   6   5  -3    3.07    0.36
  -6   5   3    3.63    0.37
  -6   5   3    3.19    0.37
   6  -5   3    3.29    0.46
  -6  -5   3    3.04    0.37
  -6   5  -3    3.56    0.39
   6   5   3    3.89    0.43
   6  -5  -3    3.27    0.49
   0  -6   3    0.95    0.17
   0  -6  -3    1.07    0.17
   0   6   3    1.36    0.17
   0   6  -3    1.35    0.18
   0  -6   3    0.92    0.12
   0   6   3    1.19    0.19
   1   6  -3   53.20    1.71
   1  -6   3   54.69    1.72
  -1   6   3   52.01    1.71
  -1  -6  -3   56.24    1.72
  -1  -6  -3   56.18    1.68
  -1   6  -3   53.12    1.71
  -1   6  -3   53.92    1.71
  -1  -6   3   54.83    1.71
  -1  -6   3   56.06    1.72
   1   6   3   52.83    1.72
   1   6   3   54.71    1.71
   1  -6  -3   56.67    1.73
   1  -6  -3   54.33    1.71
  -2   6   3    4.66    0.28
   2  -6   3    4.73    0.29
  -2  -6  -3    5.15    0.28
   2   6  -3    5.38    0.28
   2  -6   3    4.55    0.28
  -2   6   3    4.46    0.22
  -2  -6  -3    5.15    0.23
   2   6   3    4.98    0.28
   2  -6  -3    5.32    0.32
  -2   6  -3    5.47    0.27
  -2   6  -3    4.98    0.28
  -2  -6   3    5.29    0.28
   2   6   3    5.14    0.29
  -2  -6   3    5.05    0.29
  -3   6   3   40.25    1.27
   3  -6   3   39.55    1.27
   3  -6   3   40.33    1.29
   3   6  -3   35.99    1.24
  -3   6   3   38.08    1.24
   3   6  -3   40.20    1.27
  -3  -6  -3   38.42    1.27
  -3  -6  -3   40.40    1.25
   3   6   3   40.25    1.28
  -3  -6   3   40.82    1.29
   3   6   3   40.93    1.30
   3  -6  -3   37.65    1.27
  -3  -6   3   40.79    1.29
  -3   6  -3   39.45    1.27
  -3   6  -3   38.22    1.28
   3  -6  -3   40.00    1.33
  -4   6   3   10.97    0.48
   4   6  -3   10.98    0.48
   4  -6   3   11.00    0.53
  -4   6   3   10.62    0.45
   4  -6   3   11.16    0.46
  -4  -6  -3   11.40    0.48
  -4  -6  -3   10.92    0.46
   4   6   3   11.67    0.47
  -4  -6   3   11.51    0.48
  -4   6  -3   11.79    0.49
  -4  -6   3   10.63    0.49
   4  -6  -3   11.49    0.57
  -4   6  -3   11.49    0.46
   4   6   3   11.47    0.51
  -5   6   3    0.02    0.26
  -5   6   3    0.32    0.28
   5   6  -3    0.00    0.28
   5  -6   3   -0.39    0.35
  -5  -6  -3   -0.13    0.26
   5   6   3    0.14    0.30
   5  -6  -3    0.34    0.36
  -5  -6   3   -0.11    0.28
  -5   6  -3   -0.02    0.27
   5   6   3    0.05    0.26
  -6   6   3    0.85    0.34
   6   6  -3    1.18    0.33
  -6   6   3    0.67    0.32
   6  -6   3    1.89    0.45
  -6  -6  -3    1.88    0.34
  -6  -6   3    1.17    0.35
   6  -6  -3    0.57    0.45
   6   6   3    1.92    0.38
  -6   6  -3    1.57    0.36
   0  -7   3  102.61    3.16
   0   7  -3   99.50    3.15
   0   7   3  102.80    3.16
   0   7   3  102.31    3.15
   0  -7  -3  102.18    3.16
   1  -7   3    1.64    0.19
  -1  -7  -3    1.67    0.20
   1  -7   3    1.55    0.24
  -1  -7  -3    1.48    0.14
   1   7  -3    2.01    0.22
  -1   7   3    2.04    0.24
   1  -7  -3    1.75    0.25
   1   7   3    1.76    0.21
   1   7   3    2.01    0.21
   1  -7  -3    1.68    0.22
  -1   7  -3    1.88    0.23
  -1   7  -3    1.99    0.21
  -1  -7   3    1.81    0.24
   2  -7   3   73.29    2.33
  -2   7   3   69.94    2.33
   2   7  -3   74.14    2.33
  -2  -7  -3   78.36    2.30
  -2  -7  -3   76.35    2.34
   2  -7   3   74.05    2.33
  -2  -7   3   75.86    2.31
   2   7   3   74.23    2.31
   2  -7  -3   73.95    2.31
  -2   7  -3   71.71    2.31
  -2   7  -3   70.92    2.31
  -2  -7   3   75.44    2.32
   2  -7  -3   76.02    2.34
   2   7   3   73.89    2.32
   3  -7   3    2.56    0.29
  -3   7   3    2.57    0.28
   3   7  -3    2.71    0.29
  -3  -7  -3    2.34    0.29
  -3   7   3    2.70    0.22
  -3  -7  -3    2.59    0.25
   3  -7   3    2.78    0.33
   3   7   3    2.77    0.29
  -3  -7   3    2.50    0.29
  -3   7  -3    2.92    0.26
  -3  -7   3    2.06    0.27
  -3   7  -3    3.17    0.27
   3   7   3    2.59    0.27
   3  -7  -3    1.93    0.26
   3  -7  -3    2.63    0.36
  -4   7   3   13.39    0.53
  -4  -7  -3   13.47    0.54
  -4  -7  -3   13.18    0.56
  -4   7   3   14.35    0.57
   4   7  -3   13.84    0.57
   4  -7   3   13.81    0.61
  -4  -7   3   14.96    0.58
   4   7   3   13.85    0.59
  -4   7  -3   14.24    0.58
  -4  -7   3   13.96    0.58
  -4   7  -3   14.37    0.56
   4   7   3   14.55    0.56
   4  -7  -3   13.57    0.64
   5  -7   3    1.53    0.40
  -5   7   3    1.49    0.31
  -5  -7  -3    1.27    0.30
  -5   7   3    1.63    0.30
   5   7  -3    1.52    0.32
  -5   7  -3    1.82    0.32
   5   7   3    1.53    0.29
   5   7   3    1.92    0.35
  -5  -7   3    1.76    0.33
   5  -7  -3    0.67    0.39
   6   7  -3    0.42    0.35
  -6   7   3    0.51    0.35
  -6   7   3    0.49    0.32
   6  -7   3    0.50    0.45
  -6  -7  -3    0.48    0.34
  -6   7  -3    0.92    0.37
   6  -7  -3    0.96    0.47
   6   7   3    1.06    0.36
  -6  -7   3    0.30    0.35
   0   8  -3    1.73    0.24
   0  -8  -3    1.91    0.23
   0   8   3    1.89    0.24
   0  -8   3    1.06    0.17
   0   8  -3    1.81    0.21
   0  -8   3    1.46    0.23
   0   8   3    1.78    0.23
   1   8  -3   38.53    1.26
   1  -8   3   39.63    1.28
  -1  -8  -3   40.21    1.28
  -1   8   3   37.94    1.26
  -1  -8  -3   38.09    1.21
   1  -8  -3   40.75    1.31
  -1  -8   3   41.74    1.32
   1   8   3   38.95    1.29
  -1   8  -3   42.50    1.29
   1  -8  -3   38.72    1.30
  -1   8  -3   38.82    1.30
   1   8   3   38.98    1.30
   2  -8   3    7.42    0.40
  -2  -8  -3    7.37    0.40
  -2  -8  -3    7.51    0.33
  -2   8   3    8.21    0.39
   2  -8   3    7.63    0.39
   2   8  -3    8.04    0.40
   2  -8  -3    8.34    0.43
  -2  -8   3    8.10    0.38
  -2   8  -3    8.19    0.39
   2   8   3    7.66    0.38
   2   8   3    7.42    0.38
  -2  -8   3    8.42    0.41
   2  -8  -3    7.38    0.39
  -2   8  -3    7.54    0.37
   3   8  -3   19.34    0.70
  -3  -8  -3   18.43    0.65
   3  -8   3   18.16    0.69
  -3   8   3   17.76    0.69
  -3  -8  -3   17.97    0.69
   3  -8   3   19.00    0.72
  -3   8  -3   18.49    0.67
   3   8   3   18.39    0.69
   3  -8  -3   17.86    0.73
  -3  -8   3   19.04    0.69
   3   8   3   18.29    0.67
  -3   8  -3   17.99    0.67
   3  -8  -3   17.46    0.67
  -3  -8   3   18.85    0.70
   4  -8   3   13.80    0.63
  -4  -8  -3   14.24    0.59
   4   8  -3   13.75    0.59
  -4  -8  -3   13.84    0.56
  -4   8   3   14.30    0.59
  -4  -8   3   14.72    0.61
  -4   8  -3   14.59    0.58
  -4   8  -3   14.09    0.59
   4  -8  -3   14.73    0.66
   4   8   3   14.09    0.57
  -4  -8   3   14.34    0.60
   4   8   3   14.09    0.60
   5  -8   3    0.19    0.39
   5   8  -3    0.37    0.32
  -5  -8  -3   -0.08    0.29
  -5   8   3    0.35    0.32
  -5   8  -3    0.49    0.31
   5   8   3    0.88    0.30
   5  -8  -3    0.41    0.42
  -5  -8   3    0.58    0.32
  -6  -8  -3    4.30    0.39
  -6   8   3    3.53    0.43
   6  -8   3    3.26    0.52
   6   8  -3    3.32    0.42
  -6  -8   3    3.74    0.42
  -6   8  -3    4.62    0.44
   6  -8  -3    4.18    0.57
   0   9   3    1.72    0.25
   0   9  -3    1.78    0.26
   0   9   3    2.06    0.27
   0  -9   3    1.69    0.26
   0  -9  -3    1.54    0.26
   0   9  -3    1.94    0.24
  -1   9   3   17.27    0.65
   1  -9   3   17.59    0.67
   1   9  -3   17.74    0.66
  -1  -9  -3   17.30    0.67
   1  -9   3   16.93    0.62
   1   9   3   17.97    0.67
   1   9   3   17.55    0.66
  -1   9  -3   18.00    0.67
   1  -9  -3   18.63    0.69
   1  -9  -3   17.29    0.68
  -1  -9   3   18.37    0.70
  -1   9  -3   18.68    0.65
   2  -9   3    0.71    0.28
   2   9  -3    0.63    0.27
  -2  -9  -3    0.51    0.25
  -2   9   3    0.82    0.27
   2  -9   3    0.82    0.27
   2   9   3    1.08    0.25
   2   9   3    0.75    0.24
  -2  -9   3    1.10    0.26
  -2   9  -3    0.66    0.26
  -2   9  -3    1.02    0.24
   2  -9  -3    0.72    0.32
  -2  -9   3    0.39    0.28
   2  -9  -3    0.82    0.26
  -3  -9  -3    9.20    0.47
   3  -9   3    9.09    0.48
   3   9  -3    9.56    0.47
  -3   9   3    8.94    0.47
   3  -9   3    9.23    0.50
  -3  -9   3    9.81    0.46
   3   9   3    9.25    0.46
  -3   9  -3    9.43    0.44
  -3  -9   3   10.28    0.49
  -3   9  -3    8.95    0.45
   3  -9  -3    8.99    0.46
   3  -9  -3    9.30    0.52
   3   9   3    9.65    0.45
  -4  -9  -3    1.10    0.30
  -4   9   3    1.65    0.33
   4  -9   3    1.89    0.41
   4   9  -3    1.49    0.34
  -4   9  -3    1.70    0.31
  -4  -9   3    1.40    0.33
   4  -9  -3    1.19    0.41
  -4  -9   3    1.44    0.32
   4   9   3    1.63    0.30
  -4   9  -3    1.70    0.31
   5   9  -3   12.30    0.61
  -5   9   3   13.09    0.61
  -5  -9   3   11.72    0.59
   5   9   3   13.64    0.57
  -5   9  -3   11.81    0.56
   0 -10  -3   12.97    0.56
   0  10  -3   13.33    0.51
   0  10   3   12.29    0.53
   0 -10   3   12.95    0.57
   0  10  -3   12.64    0.54
   0  10   3   12.28    0.53
   1  10  -3    7.82    0.42
  -1  10   3    7.74    0.41
  -1 -10  -3    7.56    0.44
   1 -10   3    7.64    0.45
  -1  10  -3    8.79    0.40
   1 -10  -3    8.39    0.45
   1  10   3    8.16    0.42
  -1 -10   3    6.91    0.46
   1 -10  -3    7.71    0.45
  -1  10  -3    8.35    0.43
   1  10   3    8.35    0.42
   2 -10   3    6.12    0.40
   2  10  -3    6.97    0.40
  -2  10   3    6.53    0.41
  -2 -10  -3    6.74    0.43
   2 -10   3    6.25    0.43
   2  10   3    6.78    0.40
   2 -10  -3    7.06    0.44
   2 -10  -3    7.47    0.47
  -2 -10   3    6.69    0.45
   2  10   3    7.69    0.41
  -2  10  -3    6.89    0.41
  -2  10  -3    7.27    0.38
  -2 -10   3    7.70    0.41
   3 -10   3    3.67    0.38
  -3  10   3    4.30    0.37
   3 -10   3    3.61    0.40
  -3 -10  -3    3.53    0.38
   3  10  -3    3.36    0.36
   3 -10  -3    4.05    0.37
  -3  10  -3    3.19    0.32
  -3 -10   3    3.94    0.35
   3 -10  -3    3.13    0.41
  -3  10  -3    3.58    0.35
   3  10   3    3.88    0.33
  -3 -10   3    3.69    0.40
   4  10  -3    6.69    0.45
  -4 -10  -3    6.35    0.46
  -4  10   3    6.88    0.46
   4 -10   3    6.81    0.51
  -4 -10   3    6.63    0.44
   4 -10  -3    6.26    0.53
  -4  10  -3    6.97    0.44
   4  10   3    6.17    0.42
  -4  10  -3    6.59    0.42
  -4 -10   3    7.68    0.49
   5 -10   3    0.45    0.45
  -5  10   3    0.89    0.36
   5  10  -3    0.59    0.38
  -5 -10  -3    0.29    0.35
   5 -10  -3    0.24    0.45
  -5  10  -3    1.01    0.34
  -5 -10   3    0.91    0.37
   5  10   3    0.92    0.34
   0 -11   3   11.35    0.57
   0 -11  -3   11.67    0.55
   0  11  -3   12.26    0.49
   0  11  -3   11.96    0.53
   0  11   3   11.46    0.52
  -1  11   3    2.78    0.33
  -1 -11  -3    2.76    0.36
   1  11  -3    2.91    0.33
   1 -11   3    2.78    0.38
  -1  11  -3    2.99    0.34
   1 -11  -3    2.85    0.35
  -1 -11   3    2.50    0.35
   1  11   3    2.38    0.32
   1 -11  -3    2.78    0.36
  -2  11   3    9.04    0.48
   2  11  -3    8.75    0.47
  -2 -11  -3    8.65    0.49
   2 -11   3    9.09    0.50
   2  11   3    8.02    0.44
   2 -11  -3    9.05    0.50
   2 -11  -3    8.64    0.49
  -2  11  -3    8.44    0.47
  -2 -11   3    8.57    0.50
  -3  11   3    0.96    0.33
   3 -11   3    0.25    0.33
   3  11  -3    0.94    0.33
  -3 -11  -3    0.57    0.32
  -3 -11   3    0.50    0.34
   3  11   3    0.89    0.29
  -3  11  -3    0.94    0.32
  -3 -11   3    0.27    0.32
   3 -11  -3    1.03    0.39
  -4 -11  -3    0.58    0.35
   4  11  -3    0.17    0.36
   4 -11   3    0.25    0.43
  -4  11   3    0.57    0.35
  -4 -11   3    0.83    0.37
   4 -11  -3    0.08    0.44
  -4 -11   3    0.42    0.36
   4  11   3    0.12    0.32
  -4  11  -3    0.61    0.34
  -5 -11  -3    0.14    0.38
  -5  11   3    0.83    0.39
   5  11  -3    0.40    0.38
   5 -11   3   -0.07    0.45
   5 -11  -3   -0.16    0.46
   5  11   3    0.30    0.35
  -5 -11   3    0.71    0.40
   0  12  -3    0.36    0.29
   0 -12   3   -0.12    0.33
   0 -12  -3    0.35    0.31
   0  12   3    0.00    0.29
  -1  12   3    4.23    0.38
   1  12  -3    4.52    0.37
   1 -12   3    3.80    0.43
  -1 -12  -3    4.02    0.41
  -1 -12   3    4.38    0.43
  -1  12  -3    3.97    0.38
   1  12   3    4.59    0.37
   1 -12  -3    4.26    0.40
   1 -12  -3    3.49    0.41
   2  12  -3    2.84    0.37
  -2 -12  -3    1.50    0.34
   2 -12   3    2.29    0.38
  -2  12   3    2.93    0.38
   2 -12  -3    3.01    0.43
  -2 -12   3    2.06    0.38
   2  12   3    2.25    0.33
  -2  12  -3    2.60    0.36
   2 -12  -3    2.31    0.37
  -3 -12  -3   -0.34    0.34
   3  12  -3    0.56    0.35
  -3  12   3    0.19    0.33
  -3 -12   3   -0.16    0.36
  -3  12  -3    0.04    0.34
   3 -12  -3   -0.51    0.39
   3  12   3    0.41    0.30
  -4  12   3    1.91    0.41
   4  12  -3    0.93    0.39
  -4 -12  -3    0.86    0.38
   4  12   3    1.16    0.34
  -4 -12   3    1.09    0.40
  -4  12  -3    1.31    0.37
   4 -12  -3    1.04    0.48
   0 -13   3    1.35    0.38
   0  13   3    1.62    0.35
   0  13  -3    1.51    0.35
   0 -13  -3    1.19    0.37
  -1 -13  -3    0.83    0.35
   1  13  -3    0.19    0.32
  -1  13   3   -0.07    0.32
   1 -13   3    0.45    0.37
   1  13   3    0.32    0.32
  -1 -13   3    0.29    0.36
  -1  13  -3    0.67    0.34
   1 -13  -3    0.28    0.37
  -2  13   3    1.85    0.38
   2 -13   3    1.55    0.40
   2  13  -3    1.39    0.36
  -2 -13  -3    1.76    0.38
   2 -13  -3    1.65    0.42
   2 -13  -3    1.83    0.38
   2  13   3    1.98    0.35
  -2  13  -3    1.37    0.36
  -2 -13   3    1.38    0.38
  -3  13   3    4.38    0.45
  -3 -13  -3    3.51    0.46
   3  13  -3    4.41    0.45
   3 -13   3    5.06    0.50
  -3  13  -3    3.96    0.44
   3  13   3    4.19    0.41
   3 -13  -3    3.86    0.50
  -3 -13   3    4.85    0.50
   0  14  -3    0.72    0.36
   0 -14   3    1.24    0.40
   0 -14  -3    0.92    0.40
   0  14   3    1.08    0.35
   1 -14   3    1.55    0.42
  -1 -14  -3    0.84    0.39
   1  14  -3    1.33    0.37
  -1  14   3    1.66    0.38
  -1  14  -3    0.85    0.37
  -1 -14   3    1.33    0.42
   1  14   3    1.92    0.37
   1 -14  -3    0.84    0.40
   2  14  -3    1.23    0.36
   2 -14   3    1.14    0.42
  -2  14   3    0.61    0.39
  -2 -14  -3    1.87    0.42
  -2  14  -3    0.62    0.37
   2 -14  -3    0.49    0.40
  -2 -14   3    1.14    0.43
   2  14   3    1.26    0.35
   0 -15  -3    2.66    0.46
   0  15   3    2.24    0.41
   0 -15   3    1.93    0.47
   0  15  -3    2.02    0.40
   1 -15   3    0.18    0.43
  -1 -15  -3    0.23    0.41
  -1  15   3    0.67    0.39
   1  15  -3    0.52    0.38
  -1  15  -3    0.08    0.39
  -1 -15   3    0.04    0.43
   1  15   3   -0.14    0.34
   1 -15  -3   -0.11    0.41
   0   0   4  160.71    5.10
   0   0   4  172.01    5.09
   0   0   4  168.87    5.10
  -1   0   4  233.31    6.99
   1   0  -4  225.19    7.00
  -1   0   4  225.41    6.99
   1   0   4  227.49    7.00
  -1   0   4  227.22    6.99
  -1   0  -4  230.26    6.99
   1   0   4  239.63    7.00
  -2   0   4    9.55    0.36
   2   0   4   10.55    0.36
   2   0  -4   10.33    0.38
  -2   0   4   10.14    0.36
   2   0   4    9.86    0.38
  -2   0  -4   10.23    0.37
   3   0  -4    1.48    0.21
   3   0   4    0.80    0.11
   3   0   4    1.31    0.21
  -3   0   4    1.02    0.17
  -3   0  -4    1.13    0.17
  -3   0   4    0.90    0.17
   3   0   4    1.04    0.13
  -4   0  -4    1.80    0.25
  -4   0   4    1.03    0.22
  -4   0   4    1.89    0.23
   4   0   4    1.80    0.17
  -4   0  -4    1.69    0.19
   4   0  -4    2.09    0.29
   4   0   4    1.82    0.29
   5   0   4   -0.20    0.30
  -5   0  -4    0.33    0.25
  -5   0   4    0.36    0.25
   5   0  -4    0.37    0.32
  -5   0   4    0.19    0.25
   6   0  -4    0.43    0.27
   6   0   4    0.49    0.36
  -6   0   4    0.29    0.30
  -6   0  -4    0.28    0.30
   6   0  -4    0.22    0.36
   7   0   4    3.16    0.44
   7   0  -4    3.77    0.49
   7   0  -4    4.29    0.38
  -7   0   4    3.51    0.42
  -7   0  -4    4.46    0.42
   0  -1   4  227.31    7.11
   0  -1  -4  237.93    7.10
   0   1   4  226.50    7.11
   0   1  -4  232.14    7.09
   0   1   4  236.47    7.09
   0  -1   4  234.05    7.10
   0   1   4  239.18    7.10
   1  -1   4   14.81    0.47
  -1   1   4   14.16    0.46
   1  -1   4   15.01    0.47
  -1   1   4   14.61    0.48
   1   1  -4   13.18    0.46
  -1  -1  -4   13.15    0.46
  -1   1   4   13.58    0.46
  -1   1  -4   14.33    0.48
  -1  -1   4   13.98    0.47
   1   1   4   14.34    0.47
   1   1   4   14.82    0.49
  -1  -1   4   13.80    0.46
  -1  -1   4   14.53    0.47
   2   1  -4   32.81    1.09
   2  -1   4   36.67    1.09
  -2   1   4   35.19    1.09
  -2  -1  -4   33.96    1.09
  -2   1   4   34.81    1.09
   2  -1   4   34.31    1.11
  -2  -1   4   33.77    1.04
  -2   1  -4   32.70    1.06
  -2  -1   4   33.73    1.06
   2   1   4   34.35    1.07
   2  -1  -4   33.16    1.07
  -2  -1   4   33.22    1.06
  -3   1   4   24.47    0.81
  -3  -1  -4   25.23    0.81
   3  -1   4   25.35    0.84
  -3  -1  -4   24.88    0.80
   3   1  -4   24.15    0.82
  -3   1   4   24.22    0.81
   3  -1   4   24.35    0.80
   3  -1  -4   24.40    0.83
  -3  -1   4   24.58    0.81
   3   1   4   23.25    0.77
   3   1   4   24.97    0.83
  -3   1  -4   24.98    0.81
  -3  -1   4   24.13    0.80
  -3   1  -4   24.91    0.77
  -4   1   4    3.94    0.29
   4   1  -4    4.44    0.32
  -4  -1  -4    4.05    0.28
   4  -1   4    3.64    0.24
   4  -1   4    4.26    0.35
  -4  -1  -4    3.94    0.24
  -4   1   4    4.37    0.28
  -4  -1   4    3.83    0.29
   4   1   4    4.66    0.33
  -4   1  -4    4.10    0.29
   4  -1  -4    4.55    0.34
   4   1   4    3.80    0.22
   5   1  -4    8.31    0.41
  -5   1   4    8.67    0.41
   5   1  -4    9.33    0.48
  -5   1   4    8.49    0.44
  -5  -1  -4    8.78    0.43
   5  -1   4    9.23    0.50
  -5   1  -4    9.57    0.45
   5  -1  -4    9.28    0.49
   5   1   4    8.84    0.48
  -5  -1   4    8.32    0.43
  -6   1   4    3.39    0.33
   6   1  -4    2.97    0.41
   6   1  -4    3.04    0.33
  -6   1   4    2.93    0.35
  -6  -1  -4    3.29    0.35
   6  -1   4    2.70    0.39
   6   1   4    3.28    0.39
  -6  -1   4    2.62    0.36
  -6   1  -4    3.51    0.36
   6  -1  -4    3.44    0.42
   7   1  -4    1.59    0.45
   7  -1   4    1.37    0.42
  -7  -1  -4    1.81    0.39
  -7   1   4    1.76    0.38
   7   1  -4    1.84    0.34
  -7  -1   4    1.81    0.38
   7  -1  -4    1.70    0.34
   7  -1  -4    2.22    0.48
   7   1   4    1.82    0.42
  -7   1  -4    1.74    0.39
   0   2   4    1.69    0.15
   0   2  -4    1.65    0.11
   0  -2   4    1.67    0.14
   0   2   4    1.55    0.12
   0  -2  -4    1.44    0.09
   0  -2  -4    1.65    0.12
   0  -2   4    1.11    0.10
  -1   2   4    9.47    0.34
  -1   2   4    8.67    0.29
  -1   2   4    8.84    0.31
   1  -2   4    8.61    0.32
   1   2  -4    8.11    0.31
   1   2  -4    7.55    0.29
  -1  -2  -4    8.68    0.29
   1  -2   4    8.73    0.31
  -1  -2  -4    8.80    0.31
  -1   2  -4    9.11    0.32
   1   2   4    8.89    0.33
  -1  -2   4    8.53    0.32
   1  -2  -4    8.18    0.29
   1   2   4    8.68    0.29
  -1   2  -4    8.08    0.29
  -1  -2   4    8.80    0.31
   2   2  -4   87.37    2.80
   2   2  -4   87.69    2.80
   2  -2   4   93.18    2.80
   2  -2   4   93.58    2.82
  -2  -2  -4   93.61    2.80
  -2  -2  -4   93.02    2.80
  -2   2   4   88.68    2.80
  -2   2   4   92.46    2.80
   2   2   4   90.74    2.75
  -2  -2   4   92.77    2.76
  -2  -2   4   89.33    2.77
   2   2   4   91.74    2.78
   2  -2  -4   86.51    2.75
  -2   2  -4   89.65    2.77
   2  -2  -4   89.47    2.79
  -3   2   4   10.02    0.39
   3  -2   4   10.16    0.38
  -3  -2  -4    9.36    0.37
   3  -2   4    9.96    0.42
  -3  -2  -4   10.03    0.38
  -3   2   4    9.61    0.38
   3   2  -4   10.26    0.39
   3   2  -4    9.89    0.40
  -3   2  -4    9.66    0.33
   3   2   4    9.46    0.34
   3   2   4    9.45    0.40
   3  -2  -4   10.47    0.42
  -3   2  -4    9.90    0.39
  -3  -2   4    9.96    0.38
  -3  -2   4    8.40    0.34
  -4   2   4   42.95    1.38
   4   2  -4   41.26    1.37
  -4  -2  -4   43.47    1.36
  -4   2   4   41.74    1.37
  -4  -2  -4   44.15    1.38
   4  -2   4   42.75    1.36
   4   2  -4   41.35    1.39
   4  -2   4   44.94    1.42
   4   2   4   45.82    1.45
  -4   2  -4   44.53    1.43
  -4   2  -4   44.11    1.39
  -4  -2   4   42.85    1.43
   4   2   4   43.49    1.39
   4  -2  -4   45.29    1.46
  -5  -2  -4    8.04    0.42
   5   2  -4    8.21    0.41
  -5   2   4    8.00    0.42
   5  -2   4    8.87    0.50
  -5   2   4    8.41    0.41
   5   2  -4    8.30    0.47
   5   2   4    8.27    0.47
  -5  -2   4    7.66    0.42
  -5   2  -4    8.86    0.44
   5  -2  -4    8.71    0.51
   6   2  -4    4.23    0.35
  -6   2   4    3.84    0.37
   6  -2   4    4.42    0.42
   6   2  -4    4.09    0.42
  -6   2   4    4.63    0.36
  -6  -2  -4    3.97    0.37
   6   2   4    4.66    0.42
  -6  -2   4    3.65    0.36
  -6   2  -4    4.30    0.37
   6  -2  -4    3.93    0.46
   7  -2   4    2.20    0.46
   7   2  -4    2.20    0.46
  -7  -2  -4    1.87    0.38
   7   2  -4    1.62    0.35
  -7   2   4    1.75    0.39
  -7   2   4    2.10    0.37
  -7  -2   4    1.52    0.39
   7  -2  -4    1.76    0.47
   7   2   4    2.48    0.45
  -7   2  -4    2.17    0.40
   0  -3   4  115.13    3.69
   0   3  -4  117.96    3.69
   0  -3   4  126.66    3.70
   0   3   4  120.21    3.69
   0   3   4  119.08    3.71
   0  -3  -4  125.36    3.70
  -1  -3  -4  142.23    4.31
  -1  -3  -4  143.44    4.33
   1  -3   4  149.45    4.33
   1  -3   4  141.25    4.32
   1   3  -4  133.86    4.32
  -1   3   4  141.11    4.34
  -1   3   4  136.66    4.32
  -1   3   4  144.57    4.31
   1  -3  -4  139.68    4.35
  -1  -3   4  141.32    4.35
  -1  -3   4  140.32    4.35
   1   3   4  143.70    4.36
  -1   3  -4  139.77    4.36
  -1   3  -4  144.01    4.34
   1   3   4  148.17    4.35
  -2   3   4   35.76    1.16
   2  -3   4   36.96    1.17
   2   3  -4   37.02    1.17
  -2  -3  -4   37.57    1.15
  -2   3   4   38.45    1.15
   2  -3   4   37.09    1.16
  -2  -3  -4   37.14    1.16
   2   3  -4   34.28    1.15
  -2  -3   4   36.62    1.16
   2   3   4   36.66    1.17
  -2  -3   4   37.26    1.14
   2  -3  -4   37.76    1.18
  -2   3  -4   35.70    1.16
   2  -3  -4   35.06    1.13
   2   3   4   36.92    1.14
  -2   3  -4   35.37    1.13
  -3  -3  -4   53.83    1.70
  -3   3   4   53.58    1.69
   3  -3   4   53.57    1.72
  -3   3   4   53.87    1.70
  -3  -3  -4   54.36    1.69
   3   3  -4   53.24    1.70
   3  -3   4   54.74    1.70
   3   3  -4   56.28    1.70
  -3   3  -4   55.78    1.72
  -3  -3   4   55.29    1.75
  -3  -3   4   54.16    1.72
   3  -3  -4   57.23    1.78
   3   3   4   54.94    1.72
   3   3   4   57.10    1.77
  -3   3  -4   54.77    1.75
  -4  -3  -4    6.63    0.34
  -4   3   4    6.39    0.34
   4  -3   4    6.55    0.32
   4  -3   4    6.96    0.41
   4   3  -4    7.09    0.35
   4   3  -4    6.13    0.37
  -4  -3  -4    6.36    0.32
  -4   3   4    7.08    0.34
  -4  -3   4    6.69    0.37
   4   3   4    7.39    0.31
   4  -3  -4    8.06    0.44
  -4   3  -4    6.84    0.37
  -4   3  -4    6.91    0.30
   4   3   4    7.07    0.40
  -5   3   4   10.42    0.48
   5  -3   4   10.41    0.54
  -5   3   4   10.91    0.48
  -5  -3  -4   10.23    0.48
   5   3  -4   10.76    0.48
   5   3  -4   11.22    0.52
  -5   3  -4   10.21    0.49
  -5  -3   4   10.10    0.49
   5  -3  -4   10.85    0.57
   5   3   4   11.52    0.52
  -6   3   4    2.64    0.34
   6  -3   4    2.98    0.41
   6   3  -4    3.17    0.41
  -6   3   4    2.66    0.36
   6   3  -4    2.80    0.34
  -6  -3  -4    2.88    0.35
   6  -3  -4    2.86    0.45
  -6  -3   4    2.33    0.35
  -6   3  -4    2.87    0.36
   6   3   4    2.82    0.39
   7  -3   4    3.83    0.48
   7   3  -4    3.33    0.40
  -7  -3  -4    3.69    0.40
  -7   3   4    3.76    0.42
  -7   3   4    3.46    0.40
  -7  -3   4    3.63    0.41
  -7   3  -4    3.91    0.42
   7  -3  -4    3.44    0.50
   7   3   4    4.49    0.47
   0   4   4   25.43    0.85
   0  -4   4   27.01    0.84
   0  -4  -4   26.12    0.83
   0   4  -4   24.55    0.83
   0   4   4   26.45    0.83
  -1   4   4  178.57    5.59
  -1  -4  -4  186.28    5.57
  -1   4   4  187.30    5.61
   1  -4   4  187.42    5.59
   1  -4   4  177.94    5.58
   1   4  -4  176.28    5.58
  -1  -4  -4  187.87    5.59
  -1  -4   4  180.08    5.67
  -1   4  -4  187.68    5.67
  -1  -4   4  187.89    5.67
   1  -4  -4  193.66    5.67
   1   4   4  192.47    5.67
   1   4   4  185.12    5.68
  -1   4  -4  173.53    5.67
  -2   4   4   32.23    1.01
   2  -4   4   32.87    1.03
   2   4  -4   31.70    1.03
  -2   4   4   32.57    1.03
  -2  -4  -4   33.34    1.01
  -2  -4  -4   33.55    1.03
   2   4  -4   28.31    1.00
   2  -4   4   31.79    1.04
   2   4   4   33.14    1.07
  -2   4  -4   31.28    1.03
  -2   4  -4   32.92    1.06
   2  -4  -4   32.65    1.08
  -2  -4   4   34.00    1.06
   2   4   4   33.15    1.04
  -2  -4   4   34.08    1.05
   2  -4  -4   30.95    1.03
   3   4  -4    5.82    0.31
   3  -4   4    6.43    0.34
  -3   4   4    5.81    0.28
  -3   4   4    6.19    0.30
  -3  -4  -4    6.44    0.29
  -3  -4  -4    5.80    0.30
   3   4  -4    5.96    0.30
   3  -4   4    6.31    0.30
   3  -4  -4    6.65    0.37
   3   4   4    6.42    0.28
  -3  -4   4    6.72    0.32
  -3  -4   4    6.76    0.29
  -3   4  -4    6.30    0.32
   3  -4  -4    5.63    0.26
  -3   4  -4    6.18    0.27
   3   4   4    6.28    0.34
  -4  -4  -4    4.17    0.29
   4   4  -4    3.51    0.32
   4   4  -4    4.35    0.30
   4  -4   4    4.49    0.37
  -4  -4  -4    4.12    0.28
  -4   4   4    3.69    0.28
   4  -4   4    4.39    0.27
  -4   4   4    4.67    0.30
  -4  -4   4    3.87    0.31
   4   4   4    4.73    0.35
  -4   4  -4    4.64    0.25
  -4   4  -4    4.40    0.33
   4  -4  -4    4.44    0.40
   4   4   4    4.22    0.27
  -5   4   4    2.60    0.30
  -5   4   4    1.58    0.27
   5  -4   4    1.87    0.38
   5   4  -4    1.22    0.27
  -5  -4  -4    1.35    0.28
   5   4  -4    0.78    0.30
  -5  -4   4    1.61    0.30
   5   4   4    1.53    0.33
   5  -4  -4    1.85    0.38
  -5   4  -4    1.55    0.29
   6  -4   4    0.35    0.40
  -6   4   4    1.12    0.31
   6   4  -4    0.87    0.31
  -6   4   4    0.93    0.33
  -6  -4  -4    1.19    0.31
  -6   4  -4    1.10    0.34
   6   4   4    1.29    0.38
   6  -4  -4    1.09    0.43
  -6  -4   4    0.89    0.33
  -7  -4  -4    0.40    0.36
  -7   4   4    0.33    0.38
   7   4  -4   -0.04    0.34
   7  -4   4   -0.06    0.41
  -7   4   4    0.08    0.35
  -7   4  -4    0.49    0.38
   7  -4  -4    0.17    0.47
  -7  -4   4    0.01    0.37
   7   4   4    0.12    0.40
   0   5   4   46.64    1.42
   0  -5   4   45.26    1.42
   0   5  -4   43.43    1.41
   0   5   4   44.62    1.43
   0  -5  -4   45.18    1.42
   1  -5   4    5.51    0.27
  -1  -5  -4    5.10    0.20
   1  -5   4    5.04    0.24
  -1   5   4    5.39    0.26
   1   5  -4    5.13    0.25
  -1   5   4    5.49    0.29
  -1  -5  -4    5.26    0.26
  -1  -5   4    5.46    0.27
   1   5   4    5.83    0.28
  -1  -5   4    5.46    0.27
   1   5   4    5.64    0.26
  -1   5  -4    5.61    0.27
  -1   5  -4    5.97    0.27
   1  -5  -4    5.55    0.26
  -2   5   4   57.90    1.81
   2  -5   4   57.74    1.81
  -2   5   4   59.30    1.79
   2   5  -4   55.66    1.81
  -2  -5  -4   60.07    1.82
  -2  -5  -4   60.07    1.79
   2  -5   4   60.75    1.82
   2   5  -4   51.47    1.78
  -2   5  -4   55.27    1.79
   2  -5  -4   55.80    1.79
   2   5   4   58.39    1.82
  -2  -5   4   58.60    1.81
   2   5   4   58.82    1.80
  -2  -5   4   58.95    1.81
   2  -5  -4   59.16    1.84
  -2   5  -4   56.62    1.81
   3   5  -4   10.24    0.44
  -3  -5  -4   12.00    0.44
   3  -5   4   11.71    0.46
  -3   5   4   12.61    0.47
   3  -5   4   11.75    0.50
  -3  -5  -4   12.34    0.46
   3   5  -4   12.19    0.47
  -3   5   4   11.87    0.44
   3  -5  -4   12.64    0.52
  -3  -5   4   11.96    0.46
   3   5   4   11.85    0.45
   3   5   4   12.09    0.49
   3  -5  -4   11.17    0.44
  -3  -5   4   12.58    0.48
  -3   5  -4   11.61    0.44
  -3   5  -4   12.62    0.48
  -4  -5  -4    1.07    0.23
  -4   5   4    1.26    0.23
  -4   5   4    1.73    0.25
  -4  -5  -4    1.10    0.22
   4   5  -4    1.07    0.26
   4  -5   4    1.37    0.33
   4  -5   4    1.51    0.22
   4   5  -4    1.85    0.27
   4   5   4    1.64    0.23
  -4  -5   4    1.77    0.28
  -4   5  -4    1.84    0.27
  -4   5  -4    1.88    0.22
   4   5   4    1.71    0.29
   4  -5  -4    1.46    0.34
  -5  -5  -4    4.63    0.34
  -5   5   4    4.36    0.34
   5  -5   4    5.18    0.43
   5   5  -4    4.91    0.37
  -5   5   4    4.91    0.36
  -5  -5   4    4.48    0.36
  -5   5  -4    5.10    0.36
   5   5   4    5.11    0.40
   5  -5  -4    5.04    0.46
   6   5  -4    0.15    0.31
  -6   5   4    1.67    0.33
  -6  -5  -4    1.08    0.31
  -6   5   4    1.46    0.34
   6  -5   4    0.40    0.39
   6  -5  -4    1.15    0.45
  -6   5  -4    1.12    0.36
   6   5   4    1.32    0.37
  -6  -5   4    0.80    0.33
   0   6   4   11.44    0.45
   0   6  -4   11.38    0.44
   0  -6  -4   12.13    0.45
   0   6   4   11.43    0.44
   0  -6   4   11.61    0.44
   1  -6   4   16.07    0.57
  -1   6   4   15.36    0.56
  -1   6   4   17.39    0.60
  -1  -6  -4   15.94    0.57
   1   6  -4   14.78    0.56
   1  -6   4   15.68    0.54
   1  -6  -4   15.78    0.56
   1   6   4   15.93    0.55
  -1   6  -4   15.24    0.55
   1   6   4   16.45    0.57
  -1  -6   4   15.03    0.56
  -1   6  -4   15.73    0.56
  -1  -6   4   15.68    0.56
  -2   6   4   42.54    1.41
   2  -6   4   43.92    1.41
   2   6  -4   42.68    1.40
  -2  -6  -4   43.19    1.41
   2  -6   4   44.54    1.41
  -2  -6  -4   46.94    1.38
  -2   6   4   43.98    1.37
  -2  -6   4   45.39    1.42
  -2   6  -4   44.76    1.42
   2  -6  -4   44.98    1.45
   2   6   4   43.20    1.43
   2   6   4   44.92    1.41
  -2  -6   4   45.92    1.42
  -2   6  -4   42.83    1.41
   2  -6  -4   43.61    1.41
  -3  -6  -4    5.40    0.32
   3  -6   4    5.11    0.32
  -3   6   4    5.66    0.34
  -3   6   4    5.51    0.27
   3  -6   4    5.46    0.36
  -3  -6  -4    5.61    0.29
   3   6  -4    5.88    0.34
   3  -6  -4    5.88    0.39
  -3   6  -4    5.12    0.32
   3   6   4    5.69    0.31
  -3  -6   4    5.23    0.32
   3  -6  -4    5.03    0.29
  -3  -6   4    5.80    0.34
  -3   6  -4    5.22    0.28
   3   6   4    5.70    0.34
  -4  -6  -4   18.03    0.65
   4  -6   4   17.91    0.66
  -4   6   4   17.65    0.64
   4   6  -4   17.86    0.67
   4  -6   4   17.74    0.71
  -4   6   4   17.90    0.67
  -4  -6  -4   17.51    0.66
  -4  -6   4   18.98    0.70
   4   6   4   18.37    0.66
  -4   6  -4   18.57    0.66
   4  -6  -4   17.87    0.75
   4   6   4   18.78    0.71
  -4   6  -4   18.97    0.70
   5   6  -4    1.81    0.31
  -5  -6  -4    1.88    0.30
  -5   6   4    2.28    0.32
  -5   6   4    2.31    0.29
   5  -6   4    2.12    0.40
  -5   6  -4    2.01    0.32
  -5  -6   4    2.34    0.32
   5  -6  -4    2.15    0.40
   5   6   4    2.08    0.34
  -6   6   4    9.07    0.49
   6  -6   4    8.55    0.58
   6   6  -4    7.76    0.47
  -6  -6  -4    8.50    0.47
  -6   6  -4    8.34    0.51
  -6  -6   4    8.44    0.50
   6  -6  -4    8.67    0.61
   6   6   4    8.94    0.53
   0  -7   4   21.43    0.77
   0   7   4   22.77    0.76
   0   7   4   22.28    0.77
   0   7  -4   21.71    0.76
   0  -7  -4   23.10    0.77
   0   7  -4   21.95    0.75
   1  -7   4   31.35    1.02
  -1  -7  -4   31.69    1.05
  -1   7   4   31.90    1.04
   1   7  -4   31.61    1.04
   1  -7   4   32.06    1.05
  -1  -7   4   32.17    1.06
   1  -7  -4   31.43    1.05
   1   7   4   32.50    1.06
  -1   7  -4   31.75    1.04
   1   7   4   32.45    1.04
  -1   7  -4   31.23    1.04
  -2  -7  -4   26.52    0.92
   2   7  -4   27.48    0.92
  -2  -7  -4   27.99    0.87
   2  -7   4   27.23    0.92
  -2   7   4   25.55    0.91
   2  -7   4   27.14    0.91
   2   7   4   27.71    0.92
   2  -7  -4   26.68    0.90
  -2  -7   4   27.07    0.92
   2  -7  -4   28.37    0.95
  -2  -7   4   27.01    0.91
  -2   7  -4   26.06    0.90
   2   7   4   26.57    0.89
  -2   7  -4   25.85    0.90
   3  -7   4   31.16    1.06
   3   7  -4   31.43    1.05
  -3   7   4   31.18    1.05
  -3  -7  -4   30.38    1.05
  -3  -7  -4   31.97    1.02
   3  -7   4   31.71    1.05
  -3   7   4   30.33    1.01
  -3  -7   4   32.29    1.07
   3  -7  -4   32.99    1.12
   3   7   4   32.43    1.05
  -3   7  -4   31.98    1.07
  -3   7  -4   31.84    1.05
   3  -7  -4   30.70    1.05
  -3  -7   4   32.86    1.07
   3   7   4   30.11    1.07
   4  -7   4   12.14    0.58
  -4  -7  -4   12.15    0.50
   4   7  -4   11.99    0.53
  -4   7   4   12.30    0.49
   4  -7   4   12.79    0.53
  -4  -7  -4   11.96    0.52
  -4   7   4   13.17    0.54
  -4  -7   4   12.88    0.54
  -4   7  -4   13.20    0.55
  -4  -7   4   12.11    0.54
   4   7   4   12.29    0.55
   4   7   4   12.50    0.51
  -4   7  -4   12.94    0.51
   4  -7  -4   12.07    0.62
   5  -7   4   12.87    0.65
  -5   7   4   14.28    0.59
  -5  -7  -4   13.74    0.59
   5   7  -4   13.50    0.59
  -5  -7  -4   12.18    0.55
   5   7   4   14.05    0.61
  -5  -7   4   12.53    0.58
   5  -7  -4   13.00    0.66
  -5   7  -4   13.04    0.58
   6  -7   4    2.83    0.49
  -6   7   4    3.33    0.41
   6   7  -4    3.86    0.42
  -6  -7  -4    3.35    0.37
  -6  -7   4    3.02    0.41
   6  -7  -4    2.94    0.53
  -6   7  -4    3.43    0.41
   6   7   4    3.66    0.41
   0  -8   4   13.83    0.56
   0  -8  -4   14.32    0.55
   0   8   4   13.89    0.54
   0   8  -4   13.82    0.53
   0   8  -4   13.55    0.54
   0   8   4   14.27    0.55
   1   8  -4   75.17    2.37
  -1  -8  -4   74.27    2.38
   1  -8   4   76.85    2.38
  -1   8   4   75.81    2.37
  -1  -8   4   75.29    2.39
   1  -8  -4   75.21    2.38
   1  -8  -4   77.30    2.40
   1   8   4   77.05    2.38
   1   8   4   75.51    2.39
  -1   8  -4   77.17    2.37
  -1   8  -4   73.84    2.38
   2  -8   4   19.66    0.70
  -2   8   4   18.94    0.70
   2  -8   4   19.95    0.71
  -2  -8  -4   18.35    0.71
   2   8  -4   18.87    0.70
   2   8   4   18.32    0.68
   2  -8  -4   19.99    0.74
  -2   8  -4   18.78    0.69
   2  -8  -4   18.78    0.70
   2   8   4   19.59    0.71
  -2  -8   4   19.42    0.70
  -2  -8   4   18.86    0.71
  -2   8  -4   19.78    0.69
  -3  -8  -4   30.00    0.96
   3   8  -4   29.35    1.00
   3  -8   4   29.34    1.01
   3  -8   4   28.88    1.00
  -3   8   4   27.83    1.00
  -3  -8  -4   27.67    1.00
   3   8   4   29.72    1.01
  -3   8  -4   28.35    0.99
  -3  -8   4   30.17    1.00
   3  -8  -4   28.58    1.04
   3  -8  -4   27.39    0.98
   3   8   4   28.91    0.98
  -3  -8   4   30.16    1.01
  -3   8  -4   29.40    0.98
  -4  -8  -4   11.62    0.50
  -4   8   4   12.16    0.55
   4   8  -4   12.36    0.55
   4  -8   4   12.47    0.59
   4  -8   4   12.40    0.54
  -4  -8  -4   12.53    0.55
   4  -8  -4   13.03    0.64
  -4   8  -4   12.39    0.52
  -4  -8   4   11.49    0.54
  -4   8  -4   13.12    0.54
  -4  -8   4   12.03    0.55
   4   8   4   12.99    0.57
   4   8   4   12.13    0.53
   5  -8   4    6.60    0.52
  -5  -8  -4    6.39    0.45
   5   8  -4    6.80    0.45
  -5  -8  -4    6.29    0.40
  -5   8   4    6.37    0.45
   5   8   4    7.22    0.46
   5  -8  -4    5.97    0.51
  -5  -8   4    6.47    0.44
  -5   8  -4    6.64    0.44
   6   8  -4    1.39    0.39
   6  -8   4    0.55    0.46
  -6  -8  -4    1.04    0.35
  -6   8   4    1.66    0.39
  -6  -8   4    1.55    0.39
   6  -8  -4    1.57    0.52
  -6   8  -4    1.34    0.39
   0   9   4   91.22    2.86
   0  -9   4   89.57    2.86
   0  -9  -4   90.49    2.86
   0   9   4   90.87    2.85
   0   9  -4   93.24    2.84
   0   9  -4   91.44    2.85
  -1  -9  -4    9.91    0.45
   1  -9   4    9.04    0.46
   1   9  -4    8.95    0.44
  -1   9   4    9.43    0.44
   1   9   4    9.20    0.44
  -1   9  -4    9.41    0.44
  -1   9  -4    9.66    0.42
   1  -9  -4    9.18    0.46
   1  -9  -4    9.39    0.45
  -1  -9   4    9.48    0.47
   1   9   4    8.82    0.43
   2   9  -4   46.10    1.51
  -2  -9  -4   44.89    1.52
  -2   9   4   46.97    1.51
   2  -9   4   46.87    1.52
  -2   9  -4   47.53    1.52
  -2  -9   4   48.68    1.53
   2   9   4   46.96    1.54
   2  -9  -4   45.71    1.53
  -2   9  -4   45.78    1.52
   2   9   4   46.51    1.52
  -2  -9   4   47.15    1.55
   2  -9  -4   47.99    1.56
   3  -9   4    1.54    0.29
  -3   9   4    1.83    0.30
   3  -9   4    2.30    0.36
  -3  -9  -4    1.75    0.29
   3   9  -4    2.02    0.33
  -3   9  -4    2.18    0.30
   3   9   4    1.72    0.28
  -3  -9   4    1.68    0.31
   3  -9  -4    1.30    0.27
   3   9   4    2.02    0.31
  -3  -9   4    1.82    0.31
   3  -9  -4    1.70    0.36
  -3   9  -4    1.97    0.30
   4   9  -4    5.46    0.42
   4  -9   4    4.96    0.44
  -4  -9  -4    5.65    0.41
  -4   9   4    5.13    0.42
  -4   9  -4    5.45    0.39
   4   9   4    5.81    0.40
  -4  -9   4    5.28    0.41
   4   9   4    5.50    0.37
  -4  -9   4    5.51    0.43
   4  -9  -4    4.44    0.49
   5   9  -4    1.36    0.38
   5  -9   4    1.55    0.45
  -5  -9  -4    1.33    0.34
  -5   9   4    1.72    0.37
  -5   9  -4    0.90    0.34
   5  -9  -4    1.55    0.45
  -5  -9   4    1.17    0.37
   0  10   4    7.25    0.41
   0 -10   4    7.56    0.45
   0  10  -4    7.86    0.41
   0  10   4    7.37    0.41
   0 -10  -4    7.34    0.43
   0  10  -4    8.12    0.39
  -1  10   4   25.41    0.90
   1 -10   4   25.42    0.92
   1  10  -4   26.51    0.90
  -1 -10  -4   24.82    0.92
  -1 -10   4   26.69    0.97
  -1  10  -4   27.80    0.95
   1  10   4   25.87    0.94
   1 -10  -4   25.67    0.95
  -1  10  -4   28.39    0.93
   1  10   4   27.50    0.95
   1 -10  -4   27.36    0.96
   2 -10   4    7.86    0.46
   2  10  -4    7.71    0.44
  -2  10   4    8.09    0.43
  -2 -10  -4    7.93    0.46
  -2 -10   4    7.60    0.47
   2 -10  -4    7.32    0.45
   2  10   4    8.46    0.42
   2  10   4    7.49    0.42
  -2  10  -4    8.35    0.44
   2 -10  -4    8.37    0.48
  -2  10  -4    8.65    0.41
   3 -10   4    2.01    0.33
  -3 -10  -4    1.86    0.32
   3  10  -4    2.76    0.35
   3 -10   4    2.00    0.37
  -3  10   4    2.25    0.33
   3 -10  -4    2.02    0.39
  -3  10  -4    2.45    0.32
  -3  10  -4    2.67    0.33
   3  10   4    2.50    0.30
   3  10   4    2.29    0.33
  -3 -10   4    2.50    0.34
  -3 -10   4    2.38    0.35
   4  10  -4    2.27    0.38
   4 -10   4    2.15    0.41
  -4 -10  -4    1.86    0.35
  -4  10   4    2.36    0.39
  -4  10  -4    2.12    0.34
   4  10   4    2.65    0.35
   4 -10  -4    2.69    0.47
  -4 -10   4    2.68    0.37
  -4 -10   4    2.64    0.41
  -5  10   4    2.45    0.40
   5 -10   4    3.02    0.50
  -5 -10  -4    2.67    0.39
   5  10  -4    3.00    0.43
   5 -10  -4    2.05    0.49
  -5 -10   4    3.38    0.42
  -5  10  -4    2.73    0.38
   0  11   4    1.41    0.28
   0  11   4    1.45    0.31
   0  11  -4    1.69    0.27
   0 -11  -4    1.03    0.30
   0 -11   4    1.05    0.32
   0  11  -4    1.35    0.30
  -1 -11  -4    4.21    0.39
  -1  11   4    4.73    0.36
   1 -11   4    3.88    0.40
   1  11  -4    4.44    0.38
  -1  11  -4    4.65    0.37
   1 -11  -4    4.18    0.39
   1 -11  -4    4.98    0.40
  -1  11  -4    4.29    0.33
   1  11   4    3.68    0.34
   1  11   4    4.61    0.39
  -1 -11   4    4.92    0.42
  -2  11   4    0.74    0.29
   2  11  -4    0.72    0.31
   2 -11   4    0.44    0.31
  -2 -11  -4    0.77    0.31
  -2  11  -4    1.12    0.28
   2 -11  -4    0.42    0.30
   2 -11  -4    1.09    0.36
  -2 -11   4    0.62    0.32
   2  11   4    0.88    0.28
  -2  11  -4    0.75    0.31
   3  11  -4    9.09    0.51
   3 -11   4    9.68    0.54
  -3 -11  -4    8.36    0.51
  -3  11   4    9.48    0.50
  -3 -11   4    9.87    0.50
  -3  11  -4    8.84    0.49
   3  11   4    8.95    0.47
  -3 -11   4   10.10    0.55
  -3  11  -4    8.96    0.47
   3 -11  -4    9.28    0.55
  -4 -11  -4    0.96    0.36
   4  11  -4    1.91    0.39
  -4  11   4    1.82    0.39
   4 -11  -4    1.64    0.48
   4  11   4    1.11    0.32
  -4 -11   4    1.01    0.38
  -4 -11   4    2.28    0.39
   0 -12  -4    1.42    0.33
   0  12  -4    1.50    0.33
   0  12   4    2.07    0.33
   0 -12   4    1.18    0.35
   1 -12   4   12.96    0.63
  -1 -12  -4   12.64    0.62
   1  12  -4   13.51    0.59
  -1  12   4   14.11    0.60
  -1  12  -4   14.44    0.61
   1  12   4   13.09    0.59
   1 -12  -4   13.24    0.63
  -1 -12   4   13.40    0.65
   1 -12  -4   14.25    0.63
   2  12  -4    5.12    0.41
  -2 -12  -4    4.11    0.43
  -2  12   4    4.81    0.41
   2 -12   4    4.61    0.45
   2 -12  -4    4.45    0.47
  -2  12  -4    4.76    0.40
   2 -12  -4    4.70    0.44
   2  12   4    4.43    0.38
  -2 -12   4    4.49    0.46
  -3 -12  -4    6.07    0.48
  -3  12   4    6.55    0.47
   3 -12   4    6.02    0.50
   3  12  -4    6.34    0.47
   3  12   4    6.19    0.42
  -3 -12   4    6.44    0.51
   3 -12  -4    6.09    0.52
  -3  12  -4    6.26    0.45
  -4  12   4    4.24    0.47
  -4 -12  -4    4.58    0.48
   4  12  -4    4.75    0.47
   4  12   4    4.33    0.40
  -4 -12   4    4.78    0.51
   4 -12  -4    4.50    0.56
   0 -13  -4   29.52    1.14
   0 -13   4   30.17    1.15
   0  13   4   32.63    1.12
   0  13  -4   33.49    1.12
   1  13  -4    7.08    0.46
   1 -13   4    7.20    0.54
  -1 -13  -4    7.55    0.51
  -1  13   4    7.39    0.48
  -1 -13   4    7.16    0.53
   1 -13  -4    8.25    0.51
   1 -13  -4    7.88    0.52
  -1  13  -4    7.71    0.48
   1  13   4    6.89    0.45
   2  13  -4   15.99    0.69
  -2 -13  -4   14.95    0.71
   2 -13   4   15.67    0.73
  -2  13   4   15.58    0.69
   2  13   4   15.99    0.68
  -2  13  -4   16.43    0.71
   2 -13  -4   17.27    0.75
  -2 -13   4   15.92    0.75
   2 -13  -4   16.45    0.74
  -3 -13  -4    2.45    0.41
   3  13  -4    2.58    0.42
  -3  13   4    2.52    0.42
   3 -13   4    1.73    0.42
  -3 -13   4    2.22    0.44
   3 -13  -4    1.76    0.47
  -3  13  -4    2.35    0.40
   3  13   4    2.49    0.37
   0 -14   4    6.70    0.55
   0  14   4    7.29    0.49
   0 -14  -4    7.54    0.54
   0  14  -4    7.62    0.49
   1  14  -4   19.35    0.78
  -1 -14  -4   17.51    0.80
  -1  14   4   19.12    0.78
   1 -14   4   17.96    0.82
   1  14   4   17.56    0.73
   1 -14  -4   18.03    0.79
  -1  14  -4   17.75    0.75
  -1 -14   4   17.33    0.81
   2  14  -4    2.23    0.39
  -2  14   4    2.50    0.40
   2 -14   4    1.98    0.44
  -2 -14  -4    2.49    0.42
   2  14   4    2.18    0.38
  -2 -14   4    2.31    0.45
   2 -14  -4    2.87    0.44
  -2  14  -4    2.42    0.41
   0  15  -4    4.47    0.46
   0 -15  -4    4.00    0.51
   0  15   4    4.38    0.45
   0 -15   4    3.04    0.49
   0   0   5    0.13    0.08
   0   0   5    0.17    0.08
   0   0   5    0.06    0.09
  -1   0   5   12.45    0.43
  -1   0  -5   12.65    0.44
  -1   0   5   13.73    0.45
   1   0   5   13.09    0.45
  -1   0   5   13.20    0.44
   1   0   5   13.38    0.44
  -1   0   5   12.65    0.44
   2   0   5   17.93    0.59
  -2   0   5   18.00    0.59
  -2   0   5   17.69    0.59
  -2   0  -5   17.43    0.58
   2   0   5   17.57    0.60
  -2   0   5   16.53    0.56
   2   0  -5   17.64    0.60
  -3   0  -5    2.86    0.23
   3   0   5    2.36    0.19
  -3   0   5    3.10    0.22
   3   0  -5    2.91    0.25
   3   0   5    2.94    0.26
  -3   0   5    3.08    0.22
  -4   0  -5   19.45    0.68
   4   0   5   19.64    0.74
  -4   0  -5   20.28    0.71
  -4   0   5   20.73    0.70
   4   0  -5   20.45    0.74
  -4   0   5   19.78    0.71
  -5   0   5    2.41    0.31
   5   0  -5    3.44    0.38
  -5   0   5    3.03    0.32
  -5   0  -5    3.42    0.31
   5   0   5    3.03    0.37
   6   0   5    7.80    0.50
  -6   0  -5    8.48    0.46
  -6   0   5    7.50    0.46
   6   0  -5    9.31    0.54
  -7   0  -5    0.97    0.37
   7   0  -5    0.44    0.44
  -7   0   5   -0.36    0.36
   7   0   5    0.70    0.40
   7   0  -5    0.48    0.33
   0   1   5   38.50    1.22
   0  -1   5   38.64    1.21
   0   1   5   38.38    1.19
   0  -1  -5   39.61    1.20
   0  -1   5   37.78    1.21
   0   1  -5   38.42    1.20
   0   1   5   39.91    1.21
  -1   1   5   66.86    2.14
  -1  -1  -5   71.46    2.14
  -1   1   5   70.32    2.16
   1  -1   5   72.22    2.15
  -1   1   5   71.34    2.14
   1  -1   5   67.54    2.15
  -1   1   5   68.58    2.14
  -1  -1   5   73.05    2.17
   1   1   5   72.34    2.18
  -1  -1   5   68.84    2.17
  -1  -1   5   72.55    2.18
  -1  -1   5   68.98    2.18
   1   1   5   68.68    2.19
  -1   1  -5   69.94    2.18
  -2   1   5   48.69    1.55
   2  -1   5   51.58    1.56
   2   1  -5   47.71    1.55
  -2  -1  -5   50.68    1.55
   2  -1   5   49.97    1.57
  -2   1   5   50.01    1.55
  -2  -1   5   50.10    1.53
   2  -1  -5   43.84    1.50
  -2   1  -5   51.22    1.54
   2   1   5   48.75    1.54
  -2  -1   5   48.78    1.51
   2  -1  -5   49.73    1.54
   2   1   5   51.17    1.53
  -2  -1   5   48.30    1.53
   3  -1   5   24.87    0.83
  -3   1   5   24.07    0.80
  -3   1   5   24.12    0.80
   3  -1   5   23.39    0.79
  -3  -1  -5   25.39    0.80
   3   1  -5   23.24    0.81
  -3  -1  -5   24.38    0.79
   3   1   5   25.54    0.85
  -3  -1   5   24.54    0.82
  -3  -1   5   24.93    0.83
  -3   1  -5   24.83    0.83
   3  -1  -5   25.18    0.85
  -4   1   5    3.32    0.28
   4  -1   5    3.71    0.24
   4  -1   5    3.48    0.34
  -4  -1  -5    3.88    0.28
  -4   1   5    3.84    0.27
   4   1  -5    3.46    0.31
  -4  -1  -5    3.30    0.25
  -4  -1   5    3.87    0.29
   4   1   5    3.91    0.33
  -4   1  -5    3.75    0.30
   4  -1  -5    3.86    0.34
  -5   1   5   10.62    0.47
   5  -1   5   10.37    0.53
  -5   1   5    9.82    0.48
  -5  -1  -5   10.97    0.47
   5   1  -5   10.80    0.47
   5   1  -5   10.28    0.52
   5   1   5   10.96    0.54
  -5  -1   5   10.35    0.49
  -5   1  -5   10.03    0.48
   5  -1  -5   11.42    0.55
  -6  -1  -5    0.97    0.32
  -6   1   5    1.20    0.31
   6   1  -5    0.82    0.37
   6  -1   5    0.85    0.37
  -6   1   5    1.50    0.33
   6   1  -5    0.94    0.29
  -6   1  -5    1.20    0.32
   6  -1  -5    1.14    0.37
   6   1   5    1.01    0.36
  -6  -1   5    0.83    0.33
   7   1  -5    1.77    0.44
   7  -1   5    1.84    0.43
  -7  -1  -5    2.51    0.40
  -7   1   5    1.77    0.40
   7   1  -5    2.59    0.37
   7  -1  -5    2.19    0.35
   7  -1  -5    1.33    0.45
   7   1   5    1.80    0.42
  -7  -1   5    1.65    0.39
  -7   1  -5    1.81    0.40
   0  -2  -5  137.37    4.14
   0   2   5  138.84    4.16
   0  -2   5  142.19    4.15
   0   2   5  133.68    4.13
   0   2  -5  133.11    4.13
   0  -2  -5  136.32    4.15
   0  -2   5  128.40    4.14
  -1  -2  -5   54.53    1.66
   1   2  -5   51.35    1.65
  -1   2   5   51.91    1.66
  -1   2   5   54.99    1.65
   1   2  -5   54.59    1.66
  -1  -2  -5   52.17    1.65
   1  -2   5   55.95    1.67
  -1   2   5   55.06    1.68
   1  -2   5   51.62    1.66
   1   2   5   52.85    1.60
  -1   2  -5   51.43    1.62
   1   2   5   53.04    1.63
  -1  -2   5   54.56    1.62
   1  -2  -5   49.35    1.61
  -1  -2   5   51.27    1.62
  -2  -2  -5  165.76    4.89
  -2  -2  -5  166.08    4.90
   2  -2   5  165.02    4.90
  -2   2   5  152.73    4.89
   2   2  -5  155.24    4.90
  -2   2   5  165.51    4.89
   2  -2   5  161.08    4.91
   2   2  -5  150.47    4.89
   2  -2  -5  156.50    4.90
   2  -2  -5  147.85    4.86
  -2  -2   5  163.59    4.87
   2   2   5  167.07    4.90
   2   2   5  163.39    4.86
  -2  -2   5  159.03    4.89
  -2   2  -5  160.57    4.89
   3   2  -5   32.88    1.10
  -3   2   5   34.67    1.10
  -3  -2  -5   34.82    1.10
   3   2  -5   33.39    1.10
   3  -2   5   35.26    1.13
   3  -2   5   34.16    1.10
  -3   2   5   33.00    1.10
  -3  -2  -5   35.44    1.10
   3  -2  -5   34.55    1.13
   3   2   5   34.28    1.13
  -3  -2   5   35.24    1.07
   3   2   5   33.28    1.07
  -3  -2   5   34.48    1.11
  -3   2  -5   33.31    1.11
   4   2  -5   13.83    0.56
   4  -2   5   14.08    0.59
  -4   2   5   13.33    0.53
  -4  -2  -5   14.34    0.52
   4  -2   5   14.19    0.51
   4   2  -5   14.20    0.54
  -4  -2  -5   14.21    0.53
  -4   2   5   13.24    0.53
  -4  -2   5   13.77    0.55
   4   2   5   13.65    0.49
  -4   2  -5   14.16    0.56
   4  -2  -5   14.91    0.61
   4   2   5   14.74    0.58
   5   2  -5    1.04    0.32
  -5   2   5    0.81    0.27
  -5   2   5    0.44    0.26
   5  -2   5    1.05    0.35
  -5  -2  -5    0.84    0.26
   5   2  -5    0.95    0.26
  -5  -2   5    0.75    0.28
   5   2   5    1.19    0.33
   5  -2  -5    1.10    0.35
  -5   2  -5    1.00    0.27
  -6   2   5    1.98    0.32
  -6   2   5    1.16    0.32
   6   2  -5    1.29    0.30
  -6  -2  -5    1.63    0.33
   6  -2   5    1.63    0.38
   6   2  -5    1.25    0.37
  -6   2  -5    1.45    0.33
   6  -2  -5    1.71    0.42
   6   2   5    1.85    0.38
  -6  -2   5    1.67    0.34
   7  -2   5    1.39    0.44
  -7   2   5    0.80    0.36
  -7   2   5    0.86    0.38
   7   2  -5    1.08    0.35
  -7  -2  -5    1.14    0.38
  -7  -2   5    1.23    0.38
   7   2   5    1.81    0.43
  -7   2  -5    1.09    0.38
   7  -2  -5    1.32    0.47
   0   3   5    0.38    0.13
   0   3  -5    0.66    0.11
   0  -3  -5    0.76    0.10
   0  -3   5    0.56    0.12
   0  -3   5    0.17    0.08
   0   3   5    0.54    0.10
  -1   3   5  347.22   10.62
   1  -3   5  345.59   10.60
   1   3  -5  347.07   10.60
  -1  -3  -5  355.15   10.61
  -1   3   5  327.88   10.60
   1  -3   5  363.12   10.61
  -1   3   5  359.22   10.60
  -1  -3  -5  344.15   10.59
   1   3   5  352.60   10.40
  -1  -3   5  346.97   10.41
  -1   3  -5  340.73   10.40
   1   3   5  349.02   10.43
  -1  -3   5  335.91   10.41
   1  -3  -5  330.69   10.41
  -1   3  -5  339.95   10.42
   2   3  -5   41.28    1.32
   2   3  -5   40.41    1.30
  -2  -3  -5   43.16    1.32
  -2   3   5   40.03    1.32
  -2   3   5   42.88    1.30
   2  -3   5   42.22    1.33
  -2  -3  -5   42.35    1.31
   2  -3   5   42.30    1.32
  -2   3  -5   40.21    1.32
   2   3   5   42.73    1.29
   2  -3  -5   41.73    1.34
   2   3   5   41.91    1.33
  -2  -3   5   42.73    1.30
   2  -3  -5   40.10    1.29
  -2   3  -5   38.85    1.28
  -2  -3   5   43.56    1.32
   3   3  -5   39.49    1.30
  -3  -3  -5   41.35    1.30
   3  -3   5   40.67    1.33
  -3   3   5   40.85    1.30
  -3   3   5   41.01    1.29
  -3  -3  -5   41.02    1.30
   3   3  -5   39.60    1.30
   3  -3   5   42.59    1.30
   3   3   5   40.13    1.28
  -3   3  -5   40.91    1.32
  -3  -3   5   40.47    1.28
  -3   3  -5   39.31    1.27
   3   3   5   42.17    1.33
  -3  -3   5   41.53    1.31
   3  -3  -5   41.83    1.34
   4   3  -5    9.30    0.41
  -4   3   5    8.54    0.40
  -4   3   5    9.28    0.42
   4  -3   5    8.70    0.47
   4  -3   5    9.13    0.39
   4   3  -5    9.40    0.43
  -4  -3  -5    9.55    0.40
  -4  -3  -5    8.91    0.39
   4  -3  -5    9.62    0.50
  -4  -3   5    9.09    0.42
  -4   3  -5    9.76    0.43
   4   3   5    8.74    0.37
   4   3   5   10.31    0.46
   5   3  -5   29.92    1.00
  -5  -3  -5   29.73    1.00
  -5   3   5   28.51    1.00
  -5   3   5   29.23    1.00
   5   3  -5   28.79    1.02
   5  -3   5   28.66    1.05
   5  -3  -5   30.10    1.08
  -5   3  -5   30.27    1.03
   5   3   5   30.60    1.05
  -5  -3   5   27.05    1.01
  -6   3   5    2.22    0.33
   6   3  -5    1.74    0.31
  -6   3   5    1.70    0.34
   6  -3   5    2.39    0.41
   6   3  -5    2.38    0.39
  -6  -3  -5    2.37    0.35
   6  -3  -5    1.42    0.44
  -6  -3   5    1.55    0.34
  -6   3  -5    2.02    0.36
   6   3   5    2.05    0.39
  -7  -3  -5   -0.17    0.34
   7   3  -5    0.03    0.34
  -7   3   5    0.05    0.36
   7  -3   5    0.29    0.43
  -7   3   5    0.68    0.37
   7  -3  -5    0.61    0.46
  -7  -3   5    0.39    0.37
   7   3   5    0.49    0.41
  -7   3  -5    0.72    0.38
   0   4   5  124.59    3.91
   0   4  -5  128.30    3.91
   0  -4   5  130.93    3.92
   0   4   5  126.52    3.93
   0  -4  -5  128.31    3.92
   1  -4   5   15.89    0.54
   1  -4   5   14.77    0.52
  -1  -4  -5   15.69    0.50
  -1   4   5   15.58    0.53
  -1  -4  -5   16.12    0.54
  -1   4   5   16.03    0.57
   1   4  -5   15.29    0.53
   1   4   5   16.17    0.53
  -1  -4   5   15.64    0.54
  -1   4  -5   15.07    0.55
   1  -4  -5   15.06    0.53
  -1   4  -5   15.97    0.53
   1   4   5   15.33    0.55
  -1  -4   5   16.14    0.55
   2  -4   5  139.61    4.08
  -2   4   5  137.21    4.05
  -2  -4  -5  136.83    4.08
   2   4  -5  129.13    4.07
  -2  -4  -5  132.50    4.05
   2  -4   5  132.41    4.07
   2   4  -5  119.68    4.05
  -2   4   5  134.25    4.07
  -2  -4   5  133.07    4.06
   2   4   5  133.92    4.08
  -2  -4   5  132.23    4.07
  -2   4  -5  128.25    4.04
   2   4   5  135.39    4.05
  -2   4  -5  133.28    4.07
   2  -4  -5  134.03    4.09
   2  -4  -5  128.38    4.05
   3  -4   5   10.51    0.41
   3   4  -5   10.43    0.42
  -3   4   5   10.45    0.39
  -3   4   5    9.23    0.41
  -3  -4  -5    9.94    0.41
  -3  -4  -5   10.69    0.39
   3   4  -5    9.77    0.40
   3  -4   5    9.85    0.45
   3   4   5   10.84    0.39
  -3  -4   5   10.66    0.39
  -3   4  -5   11.00    0.44
  -3  -4   5   10.44    0.43
   3   4   5   11.50    0.45
   3  -4  -5    8.98    0.37
  -3   4  -5    9.76    0.37
   3  -4  -5    9.81    0.47
   4   4  -5   54.98    1.76
   4   4  -5   53.16    1.75
  -4   4   5   54.55    1.76
  -4  -4  -5   56.15    1.75
   4  -4   5   55.04    1.74
  -4  -4  -5   55.87    1.75
   4  -4   5   55.99    1.79
  -4  -4   5   55.53    1.79
  -4   4  -5   55.91    1.79
   4   4   5   55.86    1.81
   4  -4  -5   56.68    1.83
  -5   4   5    9.13    0.45
  -5  -4  -5    9.56    0.44
   5   4  -5    8.90    0.45
  -5   4   5    9.14    0.45
   5  -4   5    9.48    0.53
  -5   4  -5    9.01    0.46
  -5  -4   5    8.58    0.46
   5  -4  -5    9.60    0.54
   5   4   5    9.42    0.50
   6  -4   5   10.63    0.60
  -6   4   5   11.59    0.55
   6   4  -5   11.06    0.53
  -6  -4  -5   11.16    0.53
  -6   4   5   11.79    0.54
   6   4   5   11.75    0.59
   6  -4  -5   10.92    0.64
  -6  -4   5   10.48    0.53
  -6   4  -5   10.56    0.55
   0  -5   5   43.40    1.36
   0   5  -5   41.50    1.35
   0   5   5   43.41    1.37
   0  -5  -5   44.20    1.36
   0   5   5   41.85    1.35
  -1  -5  -5   28.79    0.92
   1   5  -5   27.98    0.91
   1  -5   5   26.97    0.89
   1  -5   5   28.77    0.92
  -1   5   5   28.42    0.94
  -1   5   5   26.98    0.91
  -1   5  -5   26.67    0.92
  -1  -5   5   28.63    0.92
  -1  -5   5   27.61    0.92
   1   5   5   28.35    0.93
  -1   5  -5   27.99    0.91
   1   5   5   29.79    0.91
   1  -5  -5   28.01    0.92
   2  -5   5   14.05    0.51
  -2  -5  -5   13.38    0.50
  -2   5   5   12.97    0.45
   2   5  -5   13.74    0.50
   2  -5   5   13.23    0.50
  -2   5   5   14.10    0.51
  -2  -5  -5   13.58    0.46
  -2   5  -5   13.49    0.51
  -2  -5   5   13.66    0.49
  -2  -5   5   14.28    0.51
   2  -5  -5   13.09    0.48
   2   5   5   13.95    0.48
  -2   5  -5   12.37    0.47
   2  -5  -5   13.63    0.54
   2   5   5   13.39    0.51
  -3  -5  -5   17.24    0.61
   3   5  -5   15.41    0.61
   3   5  -5   18.69    0.64
   3  -5   5   18.54    0.63
  -3   5   5   18.56    0.64
  -3  -5  -5   17.97    0.63
   3  -5   5   17.63    0.66
  -3   5   5   18.32    0.61
   3   5   5   17.86    0.66
   3  -5  -5   18.64    0.69
   3   5   5   17.83    0.61
  -3  -5   5   17.47    0.64
  -3   5  -5   17.78    0.64
  -3  -5   5   17.59    0.61
  -3   5  -5   17.53    0.60
   3  -5  -5   16.02    0.59
  -4   5   5   23.91    0.82
   4  -5   5   23.21    0.80
  -4  -5  -5   23.44    0.80
   4  -5   5   22.90    0.85
   4   5  -5   23.01    0.82
  -4   5   5   22.21    0.79
  -4  -5  -5   22.65    0.80
  -4  -5   5   22.40    0.83
  -4   5  -5   24.07    0.84
   4  -5  -5   23.00    0.89
   4   5   5   23.97    0.85
   4   5   5   23.82    0.79
   5   5  -5   20.14    0.76
  -5   5   5   20.13    0.76
  -5  -5  -5   20.60    0.75
  -5  -5  -5   21.54    0.76
   5  -5   5   19.92    0.81
   5   5   5   21.46    0.78
  -5  -5   5   19.20    0.75
   5  -5  -5   19.53    0.82
  -5   5  -5   18.89    0.75
   6  -5   5    1.90    0.41
  -6   5   5    2.77    0.37
  -6  -5  -5    2.78    0.35
   6   5  -5    2.55    0.36
  -6   5   5    2.70    0.37
   6  -5  -5    2.41    0.48
  -6  -5   5    2.06    0.38
  -6   5  -5    2.44    0.39
   6   5   5    2.73    0.40
   0  -6  -5   21.77    0.73
   0  -6   5   21.90    0.74
   0   6   5   20.54    0.74
   0   6  -5   21.28    0.72
   0   6   5   21.78    0.72
  -1   6   5   68.24    2.20
   1  -6   5   67.80    2.18
  -1  -6  -5   74.20    2.22
  -1   6   5   71.95    2.23
   1  -6   5   72.90    2.22
   1   6  -5   69.15    2.20
  -1   6  -5   72.61    2.25
  -1   6  -5   72.22    2.26
  -1  -6   5   72.54    2.26
   1   6   5   73.47    2.25
   1   6   5   71.52    2.27
   1  -6  -5   71.79    2.26
  -2  -6  -5    2.16    0.24
   2   6  -5    2.73    0.25
  -2   6   5    2.75    0.24
   2  -6   5    2.31    0.26
   2  -6   5    2.21    0.25
  -2  -6  -5    2.02    0.18
  -2   6   5    2.40    0.16
   2  -6  -5    2.83    0.31
   2   6   5    2.39    0.24
   2   6   5    2.54    0.22
  -2   6  -5    2.27    0.22
  -2  -6   5    2.09    0.25
   2  -6  -5    1.87    0.23
  -2  -6   5    2.42    0.25
  -2   6  -5    2.94    0.26
   3   6  -5    5.90    0.35
  -3  -6  -5    6.00    0.30
  -3   6   5    6.23    0.29
   3  -6   5    6.24    0.34
  -3   6   5    6.02    0.34
  -3  -6  -5    6.16    0.34
   3  -6   5    6.08    0.39
  -3  -6   5    6.21    0.34
   3  -6  -5    6.52    0.42
  -3  -6   5    6.15    0.35
   3   6   5    6.60    0.37
  -3   6  -5    5.87    0.30
   3  -6  -5    5.34    0.31
   3   6   5    5.82    0.31
  -3   6  -5    6.52    0.36
  -4  -6  -5    6.26    0.34
  -4   6   5    6.94    0.38
  -4   6   5    6.63    0.34
   4  -6   5    6.39    0.37
   4  -6   5    7.07    0.44
   4   6  -5    6.25    0.38
  -4  -6  -5    6.29    0.36
  -4   6  -5    6.56    0.39
  -4  -6   5    6.41    0.39
   4   6   5    6.32    0.40
   4  -6  -5    7.13    0.48
   4   6   5    6.23    0.34
   5  -6   5    3.39    0.42
   5   6  -5    3.02    0.34
  -5  -6  -5    2.79    0.33
  -5   6   5    3.04    0.35
  -5   6   5    3.11    0.33
  -5  -6  -5    4.12    0.33
   5   6   5    3.56    0.37
  -5   6  -5    2.98    0.37
   5  -6  -5    3.39    0.46
  -5  -6   5    2.90    0.36
  -6   6   5    1.03    0.34
  -6  -6  -5    0.33    0.32
   6   6  -5    0.74    0.34
  -6   6   5    1.54    0.36
   6  -6   5    0.61    0.43
  -6   6  -5    1.27    0.37
  -6  -6   5    1.01    0.37
   6  -6  -5    0.78    0.47
   6   6   5    0.60    0.38
   0   7   5   60.26    1.91
   0   7  -5   59.76    1.89
   0  -7   5   59.86    1.90
   0  -7  -5   60.83    1.90
   0   7  -5   58.48    1.89
   0   7   5   61.22    1.89
   1  -7   5   30.90    1.04
  -1   7   5   32.65    1.05
   1  -7   5   29.26    1.00
   1   7  -5   31.30    1.02
  -1   7   5   31.34    1.03
  -1  -7  -5   31.19    1.03
   1   7   5   31.40    1.06
  -1   7  -5   30.73    1.04
   1   7   5   32.02    1.03
  -1   7  -5   31.42    1.04
  -1  -7   5   32.44    1.05
   1  -7  -5   31.48    1.05
   2  -7   5   13.01    0.51
  -2  -7  -5   12.27    0.44
  -2   7   5   12.10    0.50
  -2  -7  -5   12.33    0.50
   2   7  -5   12.34    0.51
   2  -7   5   12.31    0.49
   2   7   5   12.72    0.52
   2  -7  -5   13.16    0.56
   2  -7  -5   12.77    0.50
  -2  -7   5   12.91    0.51
  -2   7  -5   12.59    0.51
   2   7   5   12.99    0.49
  -2   7  -5   12.77    0.50
  -2  -7   5   12.41    0.52
  -3  -7  -5    9.45    0.39
   3  -7   5    9.56    0.48
   3  -7   5    9.23    0.45
  -3  -7  -5    9.54    0.44
  -3   7   5    9.82    0.45
   3   7  -5   10.01    0.45
  -3  -7   5   10.48    0.45
   3   7   5    9.66    0.45
   3   7   5    9.36    0.42
  -3  -7   5    9.20    0.45
  -3   7  -5    9.19    0.41
  -3   7  -5    9.86    0.45
   3  -7  -5    8.88    0.42
   3  -7  -5   10.41    0.53
   4  -7   5    7.70    0.48
  -4   7   5    8.03    0.43
   4   7  -5    8.24    0.43
  -4  -7  -5    7.42    0.38
  -4  -7  -5    6.84    0.40
   4  -7   5    7.45    0.41
  -4   7  -5    7.65    0.42
   4   7   5    7.98    0.44
   4   7   5    7.59    0.39
   4  -7  -5    7.41    0.51
  -4  -7   5    7.80    0.44
  -5   7   5    0.46    0.32
  -5  -7  -5    0.88    0.28
   5  -7   5    0.26    0.39
  -5  -7  -5    0.40    0.28
   5   7  -5    1.18    0.33
  -5  -7   5    1.07    0.34
  -5   7  -5    0.60    0.33
   5  -7  -5    0.86    0.44
   5   7   5    1.35    0.34
  -6   7   5    1.05    0.39
   6   7  -5    1.72    0.38
   6  -7   5    0.74    0.45
  -6  -7  -5    1.48    0.34
  -6   7  -5    1.10    0.38
   6   7   5    0.95    0.38
   6  -7  -5    1.30    0.50
  -6  -7   5    1.36    0.39
   0  -8  -5   17.39    0.63
   0   8   5   17.15    0.64
   0  -8   5   16.11    0.63
   0   8  -5   16.19    0.61
   0   8   5   16.30    0.61
   0   8  -5   16.31    0.61
  -1   8   5    9.27    0.44
   1  -8   5    8.27    0.43
  -1   8   5    8.40    0.42
   1   8  -5    8.44    0.41
  -1  -8  -5    9.24    0.42
   1  -8  -5    8.34    0.41
  -1  -8   5    8.21    0.42
   1   8   5    8.53    0.39
   1   8   5    8.20    0.40
  -1   8  -5    8.65    0.40
  -1   8  -5    8.73    0.40
   2  -8   5   17.10    0.64
   2   8  -5   17.92    0.66
  -2  -8  -5   17.65    0.66
   2  -8   5   16.78    0.66
  -2   8   5   17.24    0.65
   2  -8  -5   16.38    0.64
   2   8   5   17.95    0.66
  -2   8  -5   16.39    0.63
  -2  -8   5   17.41    0.66
  -2   8  -5   17.46    0.64
  -2  -8   5   17.80    0.64
   2   8   5   16.82    0.63
   2  -8  -5   16.50    0.67
   3   8  -5   10.64    0.50
  -3  -8  -5   10.11    0.49
  -3   8   5   10.87    0.49
   3  -8   5   11.03    0.51
   3  -8   5   10.74    0.50
  -3  -8   5   11.59    0.50
   3   8   5   10.60    0.50
   3   8   5   10.75    0.47
  -3  -8   5   11.02    0.50
  -3   8  -5   10.74    0.49
  -3   8  -5   10.74    0.47
   3  -8  -5   10.67    0.56
  -4   8   5    6.51    0.41
   4  -8   5    6.66    0.41
  -4  -8  -5    5.59    0.39
   4   8  -5    5.89    0.42
   4  -8   5    6.96    0.46
  -4  -8   5    6.17    0.41
  -4   8  -5    6.27    0.40
   4   8   5    6.53    0.42
   4  -8  -5    5.69    0.47
   4   8   5    6.32    0.36
  -4  -8   5    6.18    0.41
   5   8  -5    8.74    0.51
   5  -8   5    8.55    0.56
  -5   8   5    9.43    0.51
  -5  -8  -5    8.85    0.50
  -5  -8   5    8.08    0.50
   5  -8  -5    8.55    0.60
  -5   8  -5    9.01    0.50
   5   8   5    8.92    0.50
   6   8  -5    1.43    0.41
   6  -8   5    1.46    0.48
  -6   8   5    1.41    0.41
  -6  -8   5    1.17    0.40
   6  -8  -5    0.13    0.50
  -6   8  -5    1.35    0.40
   0   9   5    0.19    0.24
   0   9  -5    0.24    0.25
   0   9  -5    0.11    0.22
   0  -9  -5    0.02    0.23
   0   9   5    0.36    0.25
  -1  -9  -5    2.98    0.32
   1  -9   5    3.06    0.33
  -1   9   5    2.51    0.31
   1   9  -5    2.91    0.31
  -1  -9   5    2.13    0.33
  -1   9  -5    2.53    0.30
   1  -9  -5    2.51    0.31
  -1   9  -5    2.60    0.28
   1  -9  -5    2.93    0.33
   1   9   5    2.49    0.29
   1   9   5    2.65    0.30
   2   9  -5   10.24    0.49
  -2  -9  -5   10.08    0.49
  -2   9   5    9.48    0.47
   2  -9   5    9.93    0.50
   2   9   5   10.07    0.45
  -2  -9   5   10.01    0.50
  -2  -9   5   10.78    0.48
   2  -9  -5    9.67    0.51
  -2   9  -5   10.76    0.46
   2   9   5    9.57    0.46
   2  -9  -5    9.54    0.47
  -2   9  -5    9.89    0.47
   3   9  -5    4.00    0.36
  -3  -9  -5    4.26    0.36
  -3   9   5    3.91    0.35
   3  -9   5    4.69    0.38
   3  -9   5    3.90    0.38
   3  -9  -5    3.94    0.41
   3   9   5    4.11    0.32
   3   9   5    4.11    0.35
  -3  -9   5    4.13    0.38
  -3  -9   5    3.58    0.35
  -3   9  -5    3.82    0.32
  -3   9  -5    4.66    0.36
   4   9  -5   12.39    0.58
   4  -9   5   12.70    0.57
  -4  -9  -5   12.31    0.58
  -4   9   5   11.62    0.56
   4  -9   5   12.28    0.61
   4  -9  -5   10.96    0.64
  -4   9  -5   12.26    0.57
  -4  -9   5   12.74    0.58
  -4  -9   5   12.89    0.59
   4   9   5   12.74    0.54
   4   9   5   13.34    0.58
   5   9  -5    5.57    0.46
  -5   9   5    6.23    0.46
   5  -9   5    5.77    0.53
  -5  -9  -5    5.71    0.45
   5  -9  -5    4.93    0.54
  -5  -9   5    4.99    0.44
  -5   9  -5    6.37    0.44
   0  10   5    0.03    0.27
   0 -10   5    0.06    0.27
   0  10  -5    0.25    0.26
   0  10  -5    0.50    0.25
   0 -10  -5    0.10    0.26
   0  10   5    0.22    0.26
   1  10  -5   12.08    0.55
  -1  10   5   12.79    0.54
  -1 -10  -5   11.90    0.55
   1 -10   5   12.85    0.57
  -1 -10   5   13.61    0.59
   1  10   5   13.18    0.55
   1 -10  -5   13.29    0.59
   1 -10  -5   11.82    0.57
  -1  10  -5   13.50    0.54
  -1  10  -5   12.94    0.56
   1  10   5   13.42    0.57
   2  10  -5    4.00    0.37
  -2  10   5    4.31    0.37
  -2 -10  -5    4.12    0.37
   2 -10   5    4.61    0.39
   2  10   5    3.61    0.33
  -2  10  -5    3.99    0.34
  -2  10  -5    4.56    0.36
  -2 -10   5    4.33    0.40
   2 -10  -5    4.27    0.41
   2 -10  -5    3.89    0.36
   2  10   5    4.28    0.35
  -3 -10  -5   14.73    0.65
  -3  10   5   15.19    0.65
   3 -10   5   15.62    0.67
   3  10  -5   16.36    0.66
   3  10   5   15.31    0.62
  -3 -10   5   16.13    0.66
  -3  10  -5   16.36    0.64
   3  10   5   16.19    0.65
   3 -10  -5   14.18    0.70
  -3 -10   5   15.63    0.67
  -3  10  -5   15.41    0.63
   4  10  -5    3.95    0.42
  -4 -10  -5    3.11    0.40
  -4  10   5    3.95    0.42
   4 -10   5    3.24    0.45
  -4  10  -5    3.26    0.38
   4 -10  -5    3.79    0.49
  -4 -10   5    3.28    0.43
  -4 -10   5    3.16    0.40
   4  10   5    3.32    0.34
   5  10  -5    3.17    0.44
  -5 -10  -5    3.13    0.43
  -5  10   5    3.26    0.43
   5 -10   5    2.65    0.51
  -5  10  -5    3.02    0.42
   5 -10  -5    3.28    0.54
  -5 -10   5    3.13    0.43
   0  11  -5    9.22    0.46
   0  11   5    8.86    0.45
   0  11  -5    8.82    0.44
   0  11   5    8.89    0.46
   0 -11   5    8.02    0.49
   0 -11  -5    8.18    0.48
   1  11  -5    2.49    0.35
   1 -11   5    2.23    0.34
  -1  11   5    2.52    0.33
  -1 -11  -5    2.48    0.36
   1  11   5    2.36    0.31
  -1  11  -5    2.72    0.32
   1  11   5    2.48    0.35
  -1 -11   5    2.48    0.38
   1 -11  -5    1.99    0.33
  -1  11  -5    2.53    0.33
   1 -11  -5    3.07    0.37
  -2  11   5   22.27    0.83
   2 -11   5   22.67    0.86
  -2 -11  -5   21.34    0.85
   2  11  -5   22.33    0.83
   2 -11  -5   24.05    0.91
  -2  11  -5   23.96    0.85
   2  11   5   22.98    0.87
  -2  11  -5   23.68    0.86
   2 -11  -5   22.02    0.87
  -2 -11   5   23.17    0.89
   2  11   5   23.38    0.84
  -3  11   5    1.05    0.34
  -3 -11  -5    0.60    0.32
   3 -11   5    1.00    0.34
   3  11  -5    1.38    0.36
  -3 -11   5    0.55    0.35
  -3 -11   5    0.58    0.35
  -3  11  -5    0.81    0.31
   3 -11  -5    0.74    0.40
  -3  11  -5    0.67    0.32
   3  11   5    0.99    0.30
  -4  11   5    6.92    0.49
  -4 -11  -5    6.12    0.49
   4  11  -5    6.43    0.49
  -4  11  -5    6.36    0.45
   4 -11  -5    6.74    0.56
  -4 -11   5    6.98    0.51
   4  11   5    6.95    0.43
  -4 -11   5    6.77    0.49
   0  12  -5    0.65    0.32
   0  12   5    0.72    0.31
   0 -12  -5    0.68    0.32
   0 -12   5    0.18    0.33
   0  12   5    0.90    0.31
  -1  12   5   10.77    0.53
   1 -12   5   11.11    0.58
   1  12  -5   10.78    0.54
  -1 -12  -5   10.53    0.56
   1  12   5   11.51    0.53
   1 -12  -5   11.14    0.58
  -1 -12   5   12.04    0.60
   1 -12  -5   10.63    0.56
  -1  12  -5   10.72    0.54
   2 -12   5    0.98    0.36
  -2 -12  -5    0.76    0.33
  -2  12   5    1.25    0.33
   2  12  -5    1.27    0.35
   2 -12  -5    0.84    0.34
   2 -12  -5    0.92    0.40
  -2 -12   5    0.89    0.37
   2  12   5    1.08    0.31
  -2  12  -5    1.11    0.34
   3 -12   5   10.51    0.59
  -3  12   5   10.73    0.57
  -3 -12  -5   10.46    0.59
   3  12  -5   11.64    0.58
  -3  12  -5   11.81    0.57
   3 -12  -5   10.77    0.63
   3  12   5   11.17    0.55
  -3 -12   5   12.01    0.63
  -4 -12  -5    2.85    0.42
   4  12  -5    2.68    0.44
  -4  12   5    3.37    0.46
  -4 -12   5    3.25    0.46
  -4 -12   5    2.47    0.43
   4  12   5    2.88    0.38
   4 -12  -5    2.40    0.53
   0 -13   5    0.02    0.36
   0  13   5    0.59    0.33
   0 -13  -5    0.18    0.34
   0  13  -5    0.95    0.34
   1  13  -5    3.60    0.40
   1 -13   5    3.22    0.46
  -1  13   5    3.30    0.40
  -1 -13  -5    2.80    0.42
   1 -13  -5    3.49    0.44
  -1  13  -5    2.67    0.39
   1 -13  -5    3.63    0.44
  -1 -13   5    4.17    0.48
   1  13   5    3.51    0.37
  -2  13   5    4.77    0.42
  -2 -13  -5    4.00    0.46
   2 -13   5    3.94    0.48
   2  13  -5    4.70    0.45
   2 -13  -5    5.21    0.49
   2 -13  -5    4.65    0.49
  -2 -13   5    5.07    0.52
   2  13   5    5.25    0.41
  -2  13  -5    5.46    0.45
  -3 -13  -5    6.23    0.51
   3  13  -5    7.22    0.50
  -3  13   5    5.62    0.49
   3 -13   5    4.72    0.52
  -3 -13   5    6.58    0.57
  -3  13  -5    7.14    0.49
   3  13   5    6.29    0.45
   3 -13  -5    6.54    0.56
   0  14  -5    3.15    0.42
   0 -14  -5    2.72    0.42
   0 -14   5    1.97    0.44
   0  14   5    3.05    0.41
   1  14  -5    1.11    0.37
  -1 -14  -5    0.81    0.38
  -1  14   5    1.03    0.37
   1 -14   5    0.74    0.40
  -1  14  -5    1.39    0.38
   1  14   5    1.53    0.37
  -1 -14   5    1.16    0.42
   1 -14  -5    1.13    0.39
   2 -14   5    4.11    0.51
  -2 -14  -5    4.25    0.48
  -2  14   5    3.96    0.45
   2  14  -5    4.45    0.46
  -2  14  -5    4.99    0.46
   2  14   5    4.27    0.43
   2 -14  -5    4.87    0.53
   2 -14  -5    3.94    0.51
  -2 -14   5    3.82    0.52
   0   0   6  210.67    6.46
   0   0   6  220.97    6.45
   0   0   6  204.14    6.46
  -1   0   6   43.69    1.35
   1   0   6   41.70    1.36
  -1   0   6   42.92    1.36
  -1   0   6   43.51    1.34
  -1   0   6   42.12    1.34
   1   0   6   44.93    1.35
  -1   0  -6   43.34    1.35
  -2   0   6   95.91    2.99
  -2   0   6   99.54    2.97
  -2   0  -6   96.08    2.99
   2   0   6   97.94    3.00
   2   0  -6   96.17    3.00
  -2   0   6   94.10    2.99
   2   0   6   99.98    2.99
  -3   0   6   32.64    1.05
   3   0   6   31.88    1.04
   3   0  -6   31.24    1.06
  -3   0   6   31.67    1.04
   3   0   6   34.10    1.08
  -3   0  -6   31.99    1.05
   4   0  -6   21.79    0.80
  -4   0  -6   23.24    0.79
   4   0   6   23.31    0.82
  -4   0   6   21.82    0.78
  -4   0   6   21.46    0.77
  -5   0  -6   10.91    0.48
  -5   0   6   10.04    0.47
   5   0   6   10.83    0.53
   5   0  -6   10.70    0.54
  -5   0   6    9.95    0.48
  -6   0  -6    0.46    0.31
   6   0  -6    0.26    0.37
  -6   0   6    0.07    0.31
   6   0   6    0.26    0.33
   7   0   6    0.97    0.42
   7   0  -6    0.97    0.45
  -7   0  -6    1.82    0.39
   7   0  -6    0.93    0.35
  -7   0   6    1.10    0.39
   0   1  -6  104.86    3.12
   0   1   6  103.34    3.14
   0   1   6   98.37    3.15
   0  -1  -6  105.07    3.13
   0   1   6  101.29    3.12
   0  -1   6  104.61    3.14
   0  -1   6   98.34    3.14
  -1  -1  -6   84.21    2.66
  -1   1   6   89.79    2.67
  -1   1   6   86.28    2.66
   1  -1   6   86.73    2.68
  -1   1   6   86.45    2.69
   1  -1   6   90.92    2.68
  -1   1   6   83.47    2.66
  -1  -1   6   85.36    2.66
  -1  -1   6   85.75    2.67
  -1   1  -6   87.46    2.67
   1   1   6   85.88    2.68
  -1  -1   6   87.56    2.66
  -1  -1   6   85.92    2.66
   1   1   6   88.29    2.67
   2  -1   6   19.95    0.69
   2  -1   6   21.18    0.68
   2   1  -6   20.59    0.68
  -2  -1  -6   21.16    0.68
  -2   1   6   19.28    0.67
  -2   1   6   20.49    0.67
   2  -1  -6   21.32    0.72
  -2  -1   6   21.43    0.70
  -2  -1   6   20.32    0.68
  -2  -1   6   21.24    0.70
   2   1   6   21.10    0.70
  -2   1  -6   20.15    0.70
   2   1   6   21.44    0.72
  -3  -1  -6   36.62    1.18
  -3   1   6   34.86    1.19
   3  -1   6   37.86    1.19
   3   1  -6   37.31    1.20
  -3  -1  -6   37.87    1.19
  -3   1   6   37.01    1.19
   3  -1   6   37.72    1.21
   3   1   6   38.83    1.22
  -3  -1   6   36.94    1.20
  -3   1  -6   37.54    1.20
  -3  -1   6   36.80    1.16
  -3  -1   6   36.84    1.20
   3  -1  -6   36.96    1.22
   4  -1   6   46.78    1.50
  -4   1   6   44.10    1.46
   4   1  -6   44.26    1.47
   4  -1   6   45.74    1.45
  -4   1   6   45.47    1.46
  -4  -1  -6   45.86    1.46
  -4  -1  -6   45.38    1.45
  -4  -1   6   44.09    1.48
   4  -1  -6   46.90    1.51
  -4  -1   6   44.53    1.47
  -4   1  -6   47.73    1.49
   4   1   6   46.46    1.51
   5   1  -6    0.89    0.26
  -5   1   6    1.15    0.28
   5   1  -6    1.50    0.33
  -5  -1  -6    2.02    0.29
  -5   1   6    0.86    0.27
   5  -1   6    1.24    0.33
  -5  -1   6    1.52    0.29
  -5   1  -6    1.61    0.29
   5  -1  -6    0.94    0.35
   5   1   6    1.50    0.34
  -6   1   6    4.72    0.39
   6   1  -6    5.04    0.38
  -6   1   6    4.81    0.40
  -6  -1  -6    5.46    0.40
   6  -1   6    5.32    0.45
   6   1  -6    6.08    0.46
   6  -1  -6    5.88    0.50
   6   1   6    6.25    0.46
  -6  -1   6    4.65    0.40
  -6   1  -6    5.07    0.41
  -7   1   6    0.21    0.38
   7  -1   6    0.50    0.40
   7   1  -6   -0.14    0.33
  -7  -1  -6    0.03    0.36
   7   1  -6   -0.18    0.43
   7  -1  -6    0.11    0.44
   7   1   6    0.12    0.40
  -7  -1   6    0.30    0.37
  -7   1  -6    0.32    0.37
   0  -2   6    3.13    0.17
   0   2   6    3.26    0.16
   0   2   6    3.61    0.21
   0   2  -6    3.39    0.16
   0  -2  -6    3.73    0.16
   0  -2  -6    3.32    0.18
   0  -2   6    3.40    0.19
   1  -2   6   32.30    1.05
  -1  -2  -6   33.54    1.04
  -1   2   6   32.54    1.07
  -1  -2  -6   33.35    1.06
  -1   2   6   34.72    1.04
   1   2  -6   33.51    1.05
   1  -2   6   33.82    1.06
  -1   2   6   32.23    1.05
   1  -2  -6   31.76    1.05
   1   2   6   33.01    1.04
  -1  -2   6   33.83    1.05
   1   2   6   34.70    1.08
  -1  -2   6   32.53    1.07
  -1   2  -6   34.37    1.07
  -1  -2   6   33.95    1.06
   2   2  -6   32.18    1.04
   2   2  -6   31.25    1.03
   2  -2   6   32.81    1.04
  -2  -2  -6   33.07    1.03
  -2  -2  -6   33.04    1.04
  -2   2   6   31.59    1.02
   2  -2   6   32.98    1.05
  -2   2   6   32.16    1.04
   2  -2  -6   32.20    1.05
   2   2   6   33.91    1.05
  -2   2  -6   32.81    1.04
   2  -2  -6   28.36    1.00
  -2  -2   6   32.03    1.04
  -2  -2   6   33.68    1.02
   3  -2   6   42.46    1.35
  -3   2   6   42.50    1.32
   3   2  -6   40.72    1.32
   3  -2   6   41.51    1.32
  -3  -2  -6   40.86    1.32
  -3  -2  -6   42.94    1.32
  -3   2   6   38.20    1.32
   3   2  -6   41.60    1.32
   3   2   6   43.03    1.37
  -3   2  -6   41.50    1.35
   3  -2  -6   41.13    1.37
  -3  -2   6   42.32    1.31
  -3  -2   6   42.12    1.35
   4  -2   6    1.83    0.32
  -4   2   6    2.00    0.26
  -4   2   6    1.72    0.25
   4  -2   6    1.59    0.20
  -4  -2  -6    1.59    0.21
   4   2  -6    2.13    0.29
  -4  -2  -6    2.03    0.25
   4   2  -6    1.57    0.25
  -4   2  -6    1.96    0.26
  -4  -2   6    1.99    0.27
   4   2   6    2.28    0.33
   4  -2  -6    1.87    0.32
  -5  -2  -6   27.10    0.92
   5   2  -6   25.77    0.94
  -5   2   6   25.68    0.92
   5  -2   6   27.76    0.98
  -5   2   6   25.29    0.92
   5   2  -6   27.36    0.92
  -5  -2   6   25.21    0.95
   5   2   6   28.64    0.99
  -5   2  -6   27.14    0.96
   5  -2  -6   27.96    1.00
  -6  -2  -6    0.84    0.32
  -6   2   6    0.80    0.31
  -6   2   6    0.91    0.33
   6  -2   6    0.67    0.38
   6   2  -6    0.76    0.31
   6   2  -6    0.72    0.37
  -6   2  -6    1.26    0.33
  -6  -2   6    0.86    0.33
   6   2   6    0.84    0.36
   6  -2  -6    0.53    0.42
  -7   2   6    2.61    0.41
  -7  -2  -6    3.43    0.42
   7  -2   6    2.69    0.46
   7   2  -6    2.51    0.39
  -7   2   6    2.56    0.40
  -7   2  -6    2.76    0.43
   7  -2  -6    3.50    0.52
  -7  -2   6    3.51    0.43
   7   2   6    3.48    0.47
   0  -3   6    1.27    0.16
   0   3   6    1.34    0.18
   0   3   6    1.14    0.14
   0  -3   6    0.77    0.12
   0  -3  -6    1.17    0.15
   0  -3  -6    0.97    0.10
   0   3  -6    1.12    0.13
   1   3  -6   98.03    3.02
   1  -3   6   96.77    3.02
  -1  -3  -6  101.09    3.03
   1   3  -6   95.35    3.01
  -1   3   6   97.87    3.05
  -1  -3  -6   99.04    3.01
  -1   3   6   96.17    3.02
  -1   3   6  101.72    3.01
   1  -3   6  100.33    3.04
   1   3   6   96.80    2.99
  -1   3  -6   99.69    3.02
  -1   3  -6   97.08    2.99
   1   3   6   97.85    3.03
  -1  -3   6  100.55    3.01
   1  -3  -6   96.62    3.00
  -1  -3   6   96.05    3.01
  -2  -3  -6   19.26    0.59
   2   3  -6   16.78    0.59
  -2   3   6   17.68    0.61
   2  -3   6   18.03    0.61
   2  -3   6   17.60    0.62
  -2   3   6   17.69    0.59
   2   3  -6   17.33    0.61
  -2  -3  -6   18.36    0.61
  -2  -3   6   18.16    0.61
   2   3   6   18.97    0.64
  -2  -3   6   17.95    0.63
   2  -3  -6   16.07    0.59
   2   3   6   18.81    0.59
   2  -3  -6   18.28    0.65
  -2   3  -6   18.28    0.63
  -3   3   6   21.29    0.72
  -3  -3  -6   21.24    0.73
   3   3  -6   20.90    0.73
   3   3  -6   21.42    0.74
  -3  -3  -6   21.89    0.72
   3  -3   6   21.83    0.74
  -3   3   6   21.47    0.74
   3  -3   6   22.21    0.76
   3   3   6   21.59    0.75
  -3   3  -6   22.32    0.74
  -3  -3   6   20.80    0.73
   3   3   6   20.89    0.68
   3  -3  -6   20.97    0.77
  -3  -3   6   20.46    0.70
   4   3  -6   27.17    0.93
  -4  -3  -6   27.00    0.91
   4  -3   6   28.19    0.97
  -4  -3  -6   27.18    0.91
  -4   3   6   27.19    0.93
   4   3  -6   26.49    0.92
   4  -3   6   27.02    0.91
  -4   3   6   26.73    0.92
  -4  -3   6   27.68    0.96
   4   3   6   28.18    0.98
  -4   3  -6   28.83    0.96
   4  -3  -6   27.10    1.00
  -5   3   6    3.79    0.32
   5   3  -6    3.58    0.36
  -5  -3  -6    3.59    0.32
  -5   3   6    2.90    0.32
   5   3  -6    3.51    0.32
   5  -3   6    3.19    0.39
  -5  -3  -6    3.29    0.30
   5   3   6    3.38    0.37
   5  -3  -6    3.84    0.42
  -5   3  -6    3.34    0.34
  -5  -3   6    3.77    0.34
  -6   3   6    3.30    0.37
  -6  -3  -6    3.31    0.37
   6  -3   6    3.41    0.44
  -6   3   6    3.13    0.36
   6   3  -6    3.29    0.36
  -6  -3   6    2.84    0.37
   6  -3  -6    2.99    0.48
   6   3   6    4.10    0.43
  -6   3  -6    4.24    0.40
   0  -4  -6  179.94    5.47
   0  -4   6  183.42    5.47
   0   4   6  183.31    5.46
   0   4   6  178.77    5.49
   0   4  -6  174.35    5.45
   0  -4   6  173.25    5.45
   1  -4   6   62.57    1.91
  -1   4   6   60.17    1.90
   1  -4   6   60.51    1.90
  -1  -4  -6   63.26    1.91
  -1  -4  -6   60.40    1.88
  -1   4   6   61.79    1.93
   1   4  -6   59.41    1.90
   1  -4  -6   60.85    1.93
  -1  -4   6   60.79    1.94
   1   4   6   62.31    1.95
  -1  -4   6   63.18    1.94
  -1   4  -6   61.20    1.94
  -1   4  -6   61.18    1.92
   1   4   6   64.54    1.92
   2  -4   6   64.15    2.00
  -2  -4  -6   64.87    1.99
   2   4  -6   63.53    1.99
  -2  -4  -6   65.42    1.97
  -2   4   6   61.91    1.99
  -2   4   6   63.48    1.97
   2  -4   6   65.99    2.00
   2   4  -6   60.55    1.96
  -2   4  -6   63.25    2.03
   2  -4  -6   64.55    2.05
   2   4   6   65.76    2.00
   2  -4  -6   64.25    2.00
   2   4   6   67.12    2.04
  -2  -4   6   64.99    2.03
  -2   4  -6   61.34    1.99
  -2  -4   6   65.17    2.01
   3   4  -6    3.21    0.24
  -3  -4  -6    3.49    0.25
  -3  -4  -6    2.92    0.22
   3  -4   6    3.06    0.30
  -3   4   6    2.99    0.23
   3  -4   6    3.17    0.25
   3   4  -6    3.36    0.27
  -3   4   6    3.40    0.27
  -3  -4   6    3.41    0.23
   3   4   6    3.33    0.29
   3  -4  -6    2.74    0.20
  -3   4  -6    3.49    0.29
  -3   4  -6    3.00    0.19
  -3  -4   6    2.53    0.28
   3  -4  -6    3.23    0.33
   3   4   6    3.33    0.21
  -4   4   6    4.38    0.31
   4  -4   6    4.47    0.31
  -4  -4  -6    4.36    0.31
  -4   4   6    4.94    0.34
   4   4  -6    4.75    0.33
   4  -4   6    4.61    0.38
  -4  -4  -6    4.58    0.30
   4   4  -6    4.52    0.34
  -4   4  -6    4.63    0.34
   4   4   6    4.73    0.37
   4  -4  -6    4.78    0.42
  -4  -4   6    4.62    0.35
   5   4  -6    1.51    0.29
   5  -4   6    1.68    0.36
  -5   4   6    1.32    0.29
  -5  -4  -6    1.27    0.25
  -5  -4  -6    2.15    0.29
  -5   4   6    1.94    0.31
  -5  -4   6    1.78    0.32
   5   4   6    1.34    0.32
   5  -4  -6    2.44    0.43
  -5   4  -6    1.75    0.31
   6  -4   6    1.57    0.41
  -6  -4  -6    1.27    0.33
  -6   4   6    1.49    0.34
  -6   4   6    1.59    0.34
   6   4  -6    1.52    0.33
  -6   4  -6    1.87    0.37
  -6  -4   6    1.26    0.36
   6   4   6    1.90    0.40
   6  -4  -6    1.00    0.45
   0   5   6   93.30    2.95
   0   5  -6   93.16    2.92
   0   5   6   94.25    2.92
   0  -5   6   95.04    2.93
   0  -5  -6   97.97    2.93
   1  -5   6   64.99    2.03
  -1   5   6   65.57    2.07
  -1  -5  -6   68.81    2.05
  -1   5   6   65.43    2.04
   1   5  -6   62.17    2.04
   1  -5   6   66.29    2.05
  -1  -5   6   67.58    2.09
   1   5   6   68.70    2.08
  -1   5  -6   64.96    2.09
   1  -5  -6   66.69    2.08
   1   5   6   65.67    2.10
  -1   5  -6   67.61    2.08
  -2  -5  -6   38.63    1.22
   2  -5   6   39.50    1.26
   2  -5   6   38.90    1.25
   2   5  -6   39.25    1.25
  -2   5   6   37.95    1.25
  -2   5   6   37.63    1.21
  -2  -5  -6   40.08    1.26
  -2   5  -6   36.71    1.25
   2   5   6   38.12    1.26
   2  -5  -6   38.76    1.28
   2  -5  -6   38.02    1.23
  -2  -5   6   39.95    1.24
   2   5   6   40.03    1.22
  -2   5  -6   37.61    1.22
  -2  -5   6   39.26    1.25
   3   5  -6   16.40    0.59
  -3   5   6   15.24    0.58
   3  -5   6   15.05    0.60
  -3   5   6   15.36    0.54
  -3  -5  -6   15.60    0.58
   3  -5   6   16.29    0.58
  -3  -5  -6   14.78    0.55
   3  -5  -6   16.23    0.63
   3   5   6   15.86    0.54
   3  -5  -6   13.11    0.53
   3   5   6   15.36    0.59
  -3   5  -6   14.51    0.52
  -3   5  -6   15.23    0.58
  -3  -5   6   15.01    0.55
  -3  -5   6   15.84    0.58
  -4   5   6   13.71    0.55
  -4   5   6   14.33    0.58
  -4  -5  -6   14.71    0.55
   4   5  -6   14.80    0.58
   4  -5   6   14.57    0.56
   4  -5   6   14.79    0.63
  -4  -5  -6   14.51    0.57
   4   5   6   14.44    0.61
   4  -5  -6   15.38    0.67
  -4  -5   6   13.91    0.60
  -4   5  -6   15.12    0.60
  -5   5   6    1.76    0.30
  -5  -5  -6    1.72    0.30
  -5  -5  -6    2.01    0.30
  -5   5   6    2.02    0.33
   5  -5   6    1.45    0.36
   5   5  -6    1.57    0.31
  -5  -5   6    1.42    0.33
   5  -5  -6    1.85    0.42
  -5   5  -6    1.62    0.33
   5   5   6    1.57    0.33
   6  -5   6    4.75    0.46
  -6   5   6    4.57    0.42
  -6   5   6    5.30    0.40
  -6  -5  -6    5.55    0.40
   6   5  -6    5.18    0.41
   6  -5  -6    4.80    0.53
  -6   5  -6    5.29    0.44
  -6  -5   6    4.89    0.43
   6   5   6    5.62    0.47
   0  -6   6    4.28    0.27
   0   6   6    4.53    0.26
   0   6   6    4.29    0.28
   0   6  -6    4.62    0.26
   0  -6  -6    4.29    0.27
  -1  -6  -6   46.52    1.46
   1  -6   6   44.28    1.43
   1  -6   6   45.90    1.46
   1   6  -6   45.16    1.45
  -1   6   6   45.29    1.45
  -1   6   6   46.61    1.48
  -1   6  -6   46.49    1.47
   1   6   6   47.09    1.47
   1   6   6   46.99    1.50
  -1  -6   6   46.82    1.48
  -1   6  -6   45.39    1.48
   1  -6  -6   45.49    1.48
   2  -6   6    8.52    0.39
   2  -6   6    8.74    0.40
   2   6  -6    8.65    0.39
  -2   6   6    8.87    0.39
  -2  -6  -6    9.26    0.40
  -2  -6  -6    8.50    0.33
   2  -6  -6    9.57    0.46
  -2   6  -6    8.81    0.41
  -2  -6   6    8.92    0.40
  -2  -6   6    8.89    0.40
   2   6   6    9.17    0.41
   2  -6  -6    8.67    0.39
  -2   6  -6    8.36    0.37
   2   6   6    9.37    0.37
   3  -6   6   41.25    1.34
  -3  -6  -6   40.77    1.31
  -3   6   6   39.99    1.34
   3   6  -6   41.29    1.34
  -3  -6  -6   41.46    1.34
   3  -6   6   41.77    1.36
  -3  -6   6   42.77    1.38
   3  -6  -6   42.40    1.44
   3   6   6   43.49    1.41
  -3   6  -6   41.20    1.36
   3   6   6   42.56    1.36
  -3   6  -6   43.53    1.40
  -3  -6   6   43.74    1.40
   4  -6   6    2.83    0.30
  -4  -6  -6    2.58    0.27
  -4   6   6    3.37    0.33
  -4  -6  -6    2.94    0.31
   4   6  -6    2.80    0.33
   4  -6   6    3.06    0.37
  -4   6   6    2.80    0.28
   4  -6  -6    3.43    0.41
  -4  -6   6    3.35    0.33
   4   6   6    3.07    0.34
  -4   6  -6    2.82    0.32
  -5  -6  -6   15.54    0.60
   5   6  -6   14.37    0.62
  -5  -6  -6   14.77    0.61
  -5   6   6   15.60    0.63
   5  -6   6   14.46    0.68
   5   6   6   16.90    0.67
  -5   6  -6   15.36    0.65
  -5  -6   6   14.43    0.64
   5  -6  -6   15.19    0.72
   6  -6   6    0.80    0.41
   6   6  -6    0.32    0.34
  -6  -6  -6    0.52    0.32
  -6   6   6    1.02    0.37
   6   6   6    1.02    0.38
  -6   6  -6    0.14    0.35
   6  -6  -6    0.60    0.49
  -6  -6   6    1.08    0.38
   0   7  -6   14.56    0.55
   0  -7   6   14.24    0.55
   0  -7  -6   13.97    0.55
   0   7   6   14.86    0.54
   0   7   6   14.41    0.57
   0   7  -6   14.15    0.54
  -1   7   6    3.14    0.27
  -1   7   6    3.02    0.29
   1  -7   6    1.55    0.21
   1   7  -6    2.95    0.27
   1  -7   6    2.20    0.27
  -1  -7  -6    2.64    0.26
   1   7   6    2.87    0.24
   1  -7  -6    2.60    0.26
  -1   7  -6    2.57    0.26
  -1  -7   6    2.64    0.28
   1   7   6    2.82    0.27
  -1   7  -6    3.23    0.27
   2   7  -6   14.31    0.56
  -2   7   6   14.46    0.57
   2  -7   6   13.95    0.55
   2  -7   6   15.08    0.57
  -2  -7  -6   14.67    0.57
   2  -7  -6   14.71    0.56
   2  -7  -6   15.14    0.62
  -2   7  -6   15.13    0.58
  -2   7  -6   14.78    0.55
   2   7   6   14.76    0.55
   2   7   6   15.13    0.59
  -2  -7   6   15.18    0.58
  -2  -7   6   14.78    0.58
  -3  -7  -6    2.79    0.32
  -3   7   6    3.44    0.33
   3   7  -6    3.26    0.32
   3  -7   6    3.17    0.31
   3  -7   6    2.82    0.34
  -3  -7  -6    3.32    0.25
  -3  -7   6    3.15    0.30
   3  -7  -6    3.63    0.39
  -3   7  -6    2.77    0.26
   3   7   6    3.55    0.33
  -3  -7   6    3.24    0.31
  -3   7  -6    3.09    0.32
   3   7   6    3.41    0.27
   4   7  -6   21.65    0.79
   4  -7   6   21.03    0.78
  -4  -7  -6   20.13    0.77
  -4  -7  -6   20.80    0.74
   4  -7   6   21.64    0.81
  -4   7   6   20.42    0.78
   4   7   6   20.70    0.79
  -4  -7   6   19.76    0.78
  -4   7  -6   21.47    0.78
   4  -7  -6   20.99    0.84
  -5  -7  -6    1.89    0.30
   5   7  -6    2.13    0.35
  -5   7   6    1.89    0.36
  -5  -7  -6    2.19    0.31
   5  -7   6    1.58    0.41
  -5  -7   6    2.04    0.37
   5  -7  -6    2.06    0.47
   5   7   6    1.91    0.36
  -5   7  -6    2.15    0.37
  -6  -7  -6    7.46    0.45
   6   7  -6    6.30    0.48
   6  -7   6    6.71    0.54
  -6   7   6    7.01    0.49
  -6  -7   6    6.96    0.49
   6  -7  -6    5.77    0.58
  -6   7  -6    7.62    0.50
   6   7   6    7.74    0.51
   0   8  -6   21.95    0.79
   0   8   6   23.10    0.79
   0   8   6   22.93    0.82
   0  -8  -6   22.84    0.80
   0   8  -6   23.28    0.79
   0  -8   6   21.21    0.80
   1  -8   6   -0.09    0.22
   1   8  -6   -0.05    0.24
  -1   8   6    0.14    0.24
  -1  -8  -6    0.06    0.21
  -1   8   6    0.14    0.23
   1   8   6    0.09    0.20
  -1   8  -6   -0.03    0.22
  -1   8  -6    0.19    0.23
  -1  -8   6    0.14    0.24
   1   8   6   -0.03    0.22
   1  -8  -6   -0.14    0.21
   2  -8   6   21.12    0.78
   2   8  -6   21.79    0.78
  -2  -8  -6   21.84    0.78
   2  -8   6   20.57    0.76
  -2   8   6   22.35    0.78
  -2  -8   6   22.28    0.79
   2   8   6   22.91    0.77
   2   8   6   21.32    0.80
   2  -8  -6   21.96    0.83
  -2   8  -6   22.18    0.77
  -2   8  -6   21.92    0.78
   2  -8  -6   21.32    0.78
  -2  -8   6   21.55    0.79
   3   8  -6    7.12    0.41
  -3  -8  -6    6.90    0.40
   3  -8   6    7.48    0.42
   3  -8   6    6.77    0.42
  -3   8   6    6.70    0.41
  -3   8  -6    7.25    0.42
  -3   8  -6    7.03    0.38
   3   8   6    7.02    0.41
  -3  -8   6    7.53    0.42
   3   8   6    6.90    0.37
   3  -8  -6    6.73    0.48
  -3  -8   6    6.94    0.41
   4  -8   6    0.96    0.36
  -4   8   6    1.50    0.32
  -4  -8  -6    1.39    0.28
   4  -8   6    1.43    0.29
   4   8  -6    1.23    0.32
   4  -8  -6    1.47    0.40
   4   8   6    1.80    0.33
  -4  -8   6    1.35    0.33
   4   8   6    1.89    0.27
  -4   8  -6    1.22    0.31
  -5  -8  -6    4.09    0.39
   5  -8   6    4.25    0.48
   5   8  -6    4.57    0.41
  -5   8   6    4.06    0.41
   5   8   6    4.87    0.43
  -5  -8   6    4.38    0.43
  -5   8  -6    4.88    0.43
   5  -8  -6    4.20    0.53
   0   9  -6    7.81    0.41
   0   9   6    7.87    0.42
   0  -9   6    6.86    0.42
   0  -9  -6    7.47    0.42
   0   9   6    7.58    0.40
   0   9  -6    7.71    0.40
   1  -9   6   33.99    1.19
  -1  -9  -6   35.35    1.19
  -1   9   6   35.04    1.17
   1   9  -6   33.86    1.17
  -1   9   6   36.70    1.21
  -1   9  -6   34.47    1.16
   1  -9  -6   34.57    1.17
   1   9   6   35.15    1.18
   1   9   6   35.13    1.15
  -1  -9   6   33.64    1.18
  -1   9  -6   35.48    1.16
   2   9  -6    1.84    0.31
  -2  -9  -6    0.98    0.27
   2  -9   6    1.32    0.28
  -2   9   6    1.16    0.27
   2  -9  -6    1.55    0.34
   2  -9  -6    1.15    0.26
   2   9   6    1.26    0.28
   2   9   6    1.44    0.26
  -2   9  -6    0.85    0.27
  -2   9  -6    1.65    0.28
  -2  -9   6    0.76    0.29
  -3   9   6    3.42    0.35
  -3  -9  -6    3.63    0.35
   3   9  -6    3.82    0.38
   3  -9   6    4.17    0.37
   3  -9   6    4.09    0.39
   3  -9  -6    4.14    0.42
  -3   9  -6    3.44    0.34
   3   9   6    4.04    0.37
  -3  -9   6    4.34    0.38
  -3   9  -6    3.74    0.37
   3   9   6    4.00    0.32
  -3  -9   6    4.59    0.37
  -4  -9  -6    0.34    0.29
   4  -9   6   -0.08    0.36
   4   9  -6    0.76    0.34
  -4   9   6    0.33    0.31
   4  -9   6    0.43    0.30
   4   9   6    0.58    0.27
  -4   9  -6    0.25    0.30
  -4  -9   6    0.43    0.33
   4  -9  -6    0.38    0.40
   4   9   6    0.50    0.31
  -5  -9  -6    0.84    0.34
  -5   9   6    0.89    0.37
   5  -9   6    0.69    0.44
   5   9  -6    0.40    0.37
  -5  -9   6    0.69    0.37
   5   9   6    0.85    0.36
  -5   9  -6    0.45    0.36
   5  -9  -6    0.96    0.47
   0  10  -6    4.40    0.36
   0  10  -6    5.04    0.34
   0 -10  -6    4.43    0.37
   0  10   6    4.71    0.37
   0  10   6    4.55    0.34
   0 -10   6    4.94    0.39
   1 -10   6    4.39    0.39
   1  10  -6    4.55    0.38
  -1  10   6    5.59    0.38
  -1 -10  -6    4.55    0.38
   1  10   6    4.94    0.37
  -1  10  -6    5.94    0.37
  -1 -10   6    4.67    0.40
   1 -10  -6    4.78    0.40
  -1  10  -6    4.75    0.36
   1  10   6    4.70    0.35
   1 -10  -6    4.70    0.38
   2 -10   6   12.24    0.58
  -2 -10  -6   12.48    0.58
  -2  10   6   12.91    0.56
   2  10  -6   13.75    0.58
  -2 -10   6   13.41    0.61
   2  10   6   13.64    0.56
  -2  10  -6   13.05    0.57
   2 -10  -6   12.87    0.60
  -2  10  -6   13.98    0.56
   2  10   6   13.55    0.59
   2 -10  -6   12.45    0.58
   3  10  -6    5.42    0.41
   3 -10   6    5.13    0.42
  -3  10   6    5.32    0.41
  -3 -10  -6    4.43    0.41
   3 -10  -6    4.14    0.47
  -3 -10   6    5.09    0.43
   3  10   6    5.64    0.41
   3  10   6    4.34    0.35
  -3 -10   6    5.00    0.42
  -3  10  -6    4.92    0.39
   4  10  -6    1.21    0.38
  -4 -10  -6    0.75    0.32
   4 -10   6    1.33    0.35
  -4  10   6    1.21    0.35
   4 -10  -6    0.65    0.44
  -4 -10   6    1.36    0.38
   4  10   6    1.31    0.36
  -4  10  -6    1.17    0.34
  -4 -10   6    0.90    0.35
   4  10   6    1.44    0.30
   5 -10   6    1.62    0.47
  -5 -10  -6    1.66    0.38
  -5  10   6    2.45    0.43
   5  10  -6    2.13    0.43
  -5 -10   6    2.34    0.42
  -5  10  -6    1.96    0.41
   5 -10  -6    1.94    0.52
   0  11  -6    1.08    0.30
   0  11  -6    0.67    0.29
   0 -11  -6    0.27    0.29
   0  11   6    0.83    0.29
   0 -11   6    0.81    0.31
   0  11   6    0.80    0.30
   1 -11   6    0.76    0.32
  -1  11   6    1.08    0.30
   1  11  -6    0.83    0.32
  -1 -11  -6    0.30    0.29
  -1 -11   6    0.47    0.32
  -1  11  -6    1.28    0.30
  -1  11  -6    1.00    0.30
   1  11   6    0.71    0.28
   1 -11  -6    0.67    0.30
   1 -11  -6    1.20    0.35
   1  11   6    0.75    0.31
  -2 -11  -6    5.28    0.43
   2  11  -6    6.10    0.43
   2 -11   6    5.53    0.45
  -2  11   6    6.73    0.43
  -2 -11   6    5.63    0.45
   2 -11  -6    5.61    0.43
   2 -11  -6    5.85    0.47
  -2  11  -6    5.94    0.42
   2  11   6    6.07    0.39
   2  11   6    6.23    0.42
  -2  11  -6    5.67    0.40
   3  11  -6    1.66    0.38
  -3 -11  -6    2.14    0.35
  -3  11   6    2.89    0.39
   3 -11   6    2.79    0.42
  -3  11  -6    1.84    0.36
   3 -11  -6    2.49    0.46
  -3 -11   6    2.59    0.41
   3  11   6    2.71    0.34
  -3 -11   6    2.08    0.38
   4  11  -6    4.42    0.44
  -4 -11  -6    3.47    0.44
  -4  11   6    4.20    0.46
  -4 -11   6    4.59    0.47
  -4 -11   6    4.21    0.45
   4 -11  -6    3.81    0.52
   4  11   6    4.09    0.39
  -4  11  -6    3.94    0.41
   0  12   6   14.71    0.65
   0 -12   6   14.17    0.69
   0  12   6   15.45    0.68
   0  12  -6   16.71    0.64
   0 -12  -6   15.23    0.68
   0  12  -6   16.34    0.66
   1 -12   6    2.55    0.38
  -1 -12  -6    2.34    0.36
   1  12  -6    2.80    0.38
  -1  12   6    2.56    0.37
  -1  12  -6    2.67    0.36
   1 -12  -6    2.58    0.41
   1 -12  -6    1.62    0.35
   1  12   6    2.71    0.35
  -1 -12   6    2.20    0.39
   1  12   6    2.92    0.41
  -1  12  -6    1.91    0.35
  -2  12   6    0.96    0.34
   2 -12   6    0.56    0.36
  -2 -12  -6    0.10    0.32
   2  12  -6    1.11    0.37
  -2 -12   6    0.62    0.37
  -2  12  -6    0.87    0.34
   2 -12  -6    0.71    0.34
  -2  12  -6    0.85    0.32
   2  12   6    0.57    0.31
   2 -12  -6    1.32    0.41
  -3 -12  -6    2.49    0.39
   3 -12   6    3.12    0.46
  -3  12   6    2.10    0.40
   3  12  -6    3.07    0.41
  -3 -12   6    2.91    0.43
   3  12   6    2.95    0.37
   3 -12  -6    2.63    0.47
  -4  12   6    0.94    0.42
  -4 -12  -6    0.56    0.38
   4  12  -6    0.41    0.41
   4 -12  -6    1.17    0.49
  -4 -12   6    1.19    0.42
   4  12   6    1.12    0.33
  -4 -12   6    0.71    0.41
   0  13  -6    1.81    0.36
   0 -13   6    0.87    0.39
   0 -13  -6    1.28    0.36
   0  13   6    1.37    0.36
   1 -13   6    6.00    0.51
  -1 -13  -6    5.98    0.49
  -1  13   6    6.69    0.46
   1  13  -6    7.26    0.46
   1 -13  -6    6.84    0.50
  -1 -13   6    6.38    0.53
   1 -13  -6    7.04    0.52
   1  13   6    7.12    0.46
  -1  13  -6    7.39    0.47
   2 -13   6    0.97    0.40
   2  13  -6    1.26    0.38
  -2  13   6    0.78    0.36
  -2 -13  -6    1.68    0.39
   2 -13  -6    1.43    0.45
  -2 -13   6    1.60    0.41
   2  13   6    1.48    0.35
   2 -13  -6    1.09    0.37
  -2  13  -6    1.72    0.38
  -3  13   6    4.13    0.47
   3 -13   6    5.42    0.53
  -3 -13  -6    4.18    0.49
   3  13  -6    5.30    0.48
  -3 -13   6    4.99    0.54
   3  13   6    5.16    0.43
   3 -13  -6    4.96    0.54
   0 -14   6    2.63    0.45
   0 -14  -6    2.22    0.41
   0  14   6    2.88    0.40
   0  14  -6    3.33    0.41
  -1  14   6    1.08    0.38
   1 -14   6    0.25    0.40
  -1 -14  -6    0.72    0.38
   1  14  -6    1.00    0.37
  -1 -14   6    0.74    0.43
   1  14   6    0.91    0.36
  -1  14  -6    0.90    0.37
   1 -14  -6    0.64    0.39
   2  14  -6    4.76    0.48
   2 -14   6    3.62    0.53
  -2  14   6    3.91    0.44
  -2 -14  -6    3.35    0.47
   2 -14  -6    4.40    0.53
   2 -14  -6    4.02    0.50
  -2 -14   6    4.58    0.54
  -2  14  -6    4.07    0.45
   0   0   7    0.03    0.12
   0   0   7    0.10    0.09
   0   0   7    0.06    0.10
   0   0  -7    0.14    0.13
   1   0   7   39.67    1.22
  -1   0   7   37.18    1.22
  -1   0  -7   38.59    1.21
  -1   0   7   38.26    1.21
  -1   0   7   38.16    1.20
   1   0   7   38.90    1.22
  -1   0   7   37.70    1.21
   2   0   7    1.96    0.22
  -2   0   7    1.46    0.19
   2   0  -7    1.78    0.21
  -2   0  -7    2.03    0.19
  -2   0   7    1.58    0.16
   2   0   7    2.02    0.19
  -2   0   7    1.97    0.19
  -3   0  -7   92.51    2.86
  -3   0   7   91.45    2.86
   3   0   7   94.30    2.88
   3   0   7   94.14    2.86
   3   0  -7   90.14    2.87
  -3   0   7   93.24    2.83
  -3   0   7   89.75    2.86
  -4   0   7    1.15    0.25
  -4   0  -7    1.24    0.26
  -4   0   7    0.96    0.24
   4   0  -7    1.61    0.30
   4   0   7    1.07    0.28
   4   0   7    0.62    0.19
   5   0   7   19.13    0.76
   5   0  -7   19.94    0.77
  -5   0   7   17.39    0.72
  -5   0   7   19.80    0.72
  -5   0  -7   19.64    0.73
  -6   0   7    0.26    0.33
  -6   0  -7    0.43    0.32
   6   0   7    0.16    0.35
   6   0  -7   -0.28    0.39
   0   1   7    3.32    0.19
   0  -1   7    2.79    0.19
   0   1  -7    3.28    0.16
   0   1   7    3.18    0.15
   0  -1   7    2.97    0.19
   0   1   7    2.76    0.21
   0  -1  -7    3.05    0.18
  -1   1   7   34.76    1.08
   1  -1   7   35.84    1.10
  -1   1   7   33.80    1.11
  -1   1   7   34.16    1.08
  -1   1   7   33.13    1.08
  -1  -1  -7   33.84    1.08
   1  -1   7   34.46    1.10
  -1  -1   7   34.89    1.10
   1   1   7   34.87    1.10
  -1   1  -7   33.83    1.10
  -1  -1   7   33.75    1.10
   1   1   7   34.83    1.11
  -1  -1   7   33.87    1.09
  -1  -1   7   35.11    1.09
   2   1  -7   56.21    1.77
  -2   1   7   55.12    1.75
  -2   1   7   56.62    1.76
  -2  -1  -7   56.84    1.76
   2  -1   7   58.03    1.77
  -2   1   7   56.33    1.76
   2  -1   7   56.50    1.78
  -2  -1   7   56.89    1.81
   2   1   7   58.86    1.82
  -2  -1   7   57.71    1.80
   2   1   7   59.36    1.83
  -2   1  -7   58.16    1.82
   2  -1  -7   57.55    1.83
  -2  -1   7   57.19    1.82
  -3   1   7   10.24    0.41
   3  -1   7   10.64    0.42
  -3  -1  -7   10.55    0.42
   3  -1   7   10.18    0.45
   3   1  -7   10.00    0.43
  -3   1   7   10.75    0.43
   3   1   7   10.51    0.45
   3  -1  -7   10.20    0.45
  -3   1  -7   10.04    0.42
  -3  -1   7    9.33    0.36
  -3  -1   7   10.42    0.42
  -3  -1   7   10.02    0.41
   4   1  -7   25.39    0.89
  -4   1   7   24.93    0.88
   4  -1   7   25.56    0.86
   4  -1   7   25.76    0.91
  -4  -1  -7   27.02    0.87
  -4   1   7   23.80    0.87
  -4  -1  -7   25.78    0.88
  -4  -1   7   24.38    0.86
   4   1   7   26.90    0.91
  -4   1  -7   25.57    0.88
   4  -1  -7   25.51    0.91
  -4  -1   7   23.74    0.87
  -5   1   7    1.19    0.28
  -5   1   7    0.67    0.28
   5   1  -7    1.30    0.28
   5  -1   7    1.02    0.33
   5   1  -7    1.03    0.33
  -5  -1  -7    1.44    0.29
  -5  -1  -7    0.65    0.22
  -5  -1   7    1.00    0.28
   5  -1  -7    1.19    0.36
  -5   1  -7    0.77    0.27
   5   1   7    1.34    0.33
   6  -1   7    8.19    0.51
   6   1  -7    8.04    0.45
  -6   1   7    8.87    0.47
  -6  -1  -7    8.60    0.48
  -6   1   7    8.02    0.47
   6   1  -7    8.78    0.53
   6  -1  -7    9.27    0.57
   6   1   7    8.91    0.52
  -6   1  -7    8.50    0.49
  -6  -1   7    7.93    0.48
   0  -2  -7   26.37    0.84
   0  -2  -7   25.88    0.85
   0   2   7   27.19    0.87
   0   2  -7   25.74    0.83
   0  -2   7   25.67    0.84
   0   2   7   26.19    0.83
   0  -2   7   27.40    0.86
   1   2  -7    3.70    0.21
  -1  -2  -7    3.45    0.22
  -1   2   7    3.84    0.20
  -1   2   7    3.97    0.24
  -1   2   7    3.68    0.20
   1  -2   7    3.71    0.22
  -1  -2  -7    3.95    0.19
   1  -2   7    3.84    0.22
  -1  -2   7    3.35    0.21
  -1  -2   7    3.70    0.19
  -1   2  -7    3.71    0.23
   1   2   7    3.49    0.23
   1   2   7    3.54    0.16
   1  -2  -7    3.39    0.19
  -1  -2   7    3.38    0.22
   2   2  -7   39.47    1.24
   2  -2   7   40.39    1.24
   2  -2   7   38.21    1.25
   2   2  -7   37.05    1.23
  -2  -2  -7   39.80    1.23
  -2   2   7   39.04    1.23
  -2   2   7   37.94    1.23
  -2  -2  -7   38.80    1.24
   2   2   7   40.22    1.24
   2  -2  -7   35.06    1.20
   2  -2  -7   39.30    1.25
  -2   2  -7   38.03    1.23
  -2  -2   7   38.91    1.21
  -2  -2   7   38.28    1.23
   3   2  -7   13.66    0.52
  -3  -2  -7   14.04    0.51
   3  -2   7   13.98    0.55
  -3   2   7   13.48    0.51
   3   2  -7   13.74    0.52
  -3  -2  -7   14.18    0.51
   3  -2   7   13.67    0.51
  -3   2   7   14.49    0.52
  -3   2  -7   13.88    0.52
  -3  -2   7   13.58    0.52
   3  -2  -7   14.32    0.57
  -3  -2   7   12.75    0.47
   3   2   7   13.94    0.54
  -4   2   7    2.08    0.26
   4  -2   7    1.45    0.21
  -4  -2  -7    1.55    0.21
   4  -2   7    1.60    0.31
  -4   2   7    1.98    0.27
  -4  -2  -7    2.02    0.26
   4   2  -7    2.01    0.26
   4   2  -7    1.73    0.28
   4   2   7    1.90    0.31
  -4   2  -7    2.23    0.29
  -4  -2   7    1.86    0.28
   4  -2  -7    2.01    0.33
  -5   2   7    0.38    0.28
  -5  -2  -7    0.71    0.22
   5  -2   7    0.85    0.32
   5   2  -7    0.96    0.28
  -5  -2  -7    0.65    0.27
  -5   2   7    0.44    0.27
   5   2  -7    0.76    0.32
  -5  -2   7    1.01    0.30
  -5   2  -7    0.71    0.29
   5   2   7    0.87    0.32
   5  -2  -7    1.04    0.35
   6  -2   7    2.35    0.41
  -6  -2  -7    3.22    0.36
   6   2  -7    2.71    0.36
  -6   2   7    2.73    0.36
  -6   2   7    2.70    0.36
  -6  -2   7    3.28    0.38
   6   2   7    2.76    0.40
  -6   2  -7    3.19    0.38
   6  -2  -7    2.73    0.47
   0  -3   7    2.35    0.20
   0  -3  -7    2.25    0.14
   0  -3   7    2.12    0.16
   0   3   7    2.08    0.16
   0   3  -7    2.19    0.16
   0   3   7    2.62    0.22
   0  -3  -7    2.28    0.18
   1   3  -7    2.98    0.20
  -1   3   7    2.89    0.17
   1  -3   7    2.68    0.20
  -1   3   7    2.68    0.24
  -1  -3  -7    2.73    0.16
  -1   3   7    2.52    0.19
   1  -3   7    2.89    0.22
  -1  -3  -7    2.50    0.20
   1  -3  -7    2.42    0.18
   1   3   7    3.02    0.23
   1   3   7    2.61    0.16
  -1  -3   7    2.15    0.20
  -1   3  -7    2.59    0.16
  -1   3  -7    2.88    0.22
  -1  -3   7    2.61    0.23
  -2   3   7    3.47    0.20
  -2  -3  -7    3.52    0.21
   2  -3   7    3.47    0.25
   2   3  -7    3.17    0.20
   2  -3   7    3.40    0.25
   2   3  -7    3.43    0.24
  -2   3   7    3.61    0.23
  -2  -3  -7    3.32    0.23
  -2   3  -7    3.41    0.25
   2   3   7    3.65    0.26
   2   3   7    3.50    0.18
  -2  -3   7    3.58    0.25
   2  -3  -7    3.74    0.29
  -2  -3   7    3.21    0.22
   2  -3  -7    2.78    0.19
  -3   3   7    1.86    0.24
  -3  -3  -7    1.42    0.19
  -3  -3  -7    1.25    0.19
   3  -3   7    1.34    0.25
   3   3  -7    1.53    0.22
   3   3  -7    1.43    0.22
  -3   3   7    1.54    0.21
   3  -3   7    1.76    0.23
  -3  -3   7    1.46    0.20
  -3  -3   7    1.87    0.25
  -3   3  -7    1.66    0.24
   3  -3  -7    1.95    0.30
   3   3   7    1.73    0.26
   3   3   7    1.68    0.16
   4  -3   7    6.72    0.34
  -4   3   7    5.93    0.34
  -4  -3  -7    5.95    0.34
   4   3  -7    6.21    0.37
  -4  -3  -7    6.69    0.34
   4   3  -7    6.13    0.37
  -4   3   7    6.89    0.37
   4  -3   7    6.22    0.41
   4   3   7    5.98    0.40
  -4  -3   7    5.95    0.38
  -4   3  -7    6.91    0.39
   4  -3  -7    7.64    0.46
  -5  -3  -7    1.63    0.25
  -5   3   7    1.55    0.29
   5   3  -7    1.56    0.29
  -5  -3  -7    1.84    0.28
   5  -3   7    1.62    0.35
  -5   3   7    0.89    0.29
   5   3   7    1.41    0.34
  -5  -3   7    1.83    0.32
  -5   3  -7    1.66    0.31
   5  -3  -7    1.56    0.40
   6   3  -7    3.41    0.38
   6  -3   7    3.31    0.43
  -6   3   7    3.74    0.38
  -6  -3  -7    4.24    0.38
  -6   3   7    3.66    0.39
  -6   3  -7    4.12    0.41
   6   3   7    4.13    0.44
  -6  -3   7    3.76    0.40
   6  -3  -7    3.70    0.51
   0   4  -7    7.60    0.31
   0  -4   7    8.38    0.35
   0   4   7    8.48    0.32
   0  -4   7    6.76    0.29
   0   4   7    8.80    0.36
   0  -4  -7    7.91    0.33
  -1  -4  -7    2.00    0.20
  -1  -4  -7    2.02    0.14
  -1   4   7    2.35    0.24
  -1   4   7    2.24    0.20
   1   4  -7    2.26    0.20
   1  -4   7    1.79    0.19
   1  -4   7    2.26    0.22
   1   4   7    2.24    0.22
   1  -4  -7    2.16    0.19
  -1   4  -7    2.08    0.17
  -1   4  -7    2.26    0.23
   1   4   7    2.05    0.17
  -1  -4   7    1.77    0.21
  -2   4   7   21.32    0.71
   2   4  -7   23.49    0.75
   2  -4   7   22.44    0.76
   2  -4   7   22.41    0.75
  -2  -4  -7   22.77    0.75
   2   4  -7   20.24    0.71
  -2   4   7   21.40    0.74
  -2  -4  -7   22.84    0.72
  -2  -4   7   22.74    0.76
  -2  -4   7   22.11    0.74
   2   4   7   23.00    0.72
   2  -4  -7   22.04    0.79
  -2   4  -7   20.76    0.71
   2  -4  -7   20.99    0.73
  -2   4  -7   22.97    0.77
   2   4   7   22.34    0.77
   3   4  -7   19.91    0.70
   3  -4   7   19.90    0.72
  -3  -4  -7   20.19    0.70
  -3  -4  -7   19.92    0.68
   3  -4   7   20.67    0.70
   3   4  -7   18.72    0.67
  -3   4   7   19.76    0.67
  -3   4   7   19.63    0.70
  -3   4  -7   20.79    0.73
   3  -4  -7   20.56    0.77
  -3  -4   7   19.62    0.73
   3   4   7   20.55    0.75
  -3  -4   7   19.51    0.69
   3   4   7   20.43    0.67
  -4  -4  -7   13.04    0.51
   4  -4   7   12.43    0.51
  -4  -4  -7   12.59    0.49
   4   4  -7   12.18    0.52
  -4   4   7   11.98    0.52
   4  -4   7   12.68    0.57
  -4   4   7   12.47    0.50
  -4   4  -7   14.05    0.55
   4  -4  -7   12.75    0.60
   4   4   7   11.98    0.55
  -4  -4   7   12.19    0.54
  -5   4   7   23.05    0.87
  -5  -4  -7   25.95    0.88
   5  -4   7   25.52    0.94
   5   4  -7   23.28    0.88
  -5  -4  -7   25.67    0.87
  -5   4   7   24.51    0.88
   5   4   7   26.35    0.93
  -5  -4   7   22.75    0.89
  -5   4  -7   24.89    0.91
   5  -4  -7   24.50    0.97
   6   4  -7    3.47    0.39
  -6   4   7    4.27    0.40
  -6   4   7    4.14    0.39
   6  -4   7    4.47    0.47
  -6  -4  -7    4.62    0.39
  -6  -4   7    4.00    0.41
   6  -4  -7    5.16    0.52
   6   4   7    4.06    0.44
  -6   4  -7    4.80    0.43
   0   5   7   14.46    0.53
   0   5  -7   13.10    0.49
   0  -5  -7   13.19    0.50
   0   5   7   13.85    0.49
   0  -5   7   13.80    0.51
  -1   5   7   91.05    2.83
   1  -5   7   90.65    2.81
   1  -5   7   88.47    2.78
  -1   5   7   89.24    2.79
   1   5  -7   88.82    2.79
  -1  -5  -7   94.06    2.81
  -1   5  -7   86.74    2.81
  -1  -5   7   89.87    2.80
   1   5   7   93.46    2.82
  -1   5  -7   92.48    2.78
   1  -5  -7   87.64    2.79
   1   5   7   91.70    2.78
  -2   5   7   16.63    0.57
   2  -5   7   17.41    0.62
  -2  -5  -7   16.38    0.58
  -2  -5  -7   18.14    0.63
   2   5  -7   17.89    0.63
  -2   5   7   17.38    0.62
   2  -5   7   18.26    0.63
  -2  -5   7   17.41    0.61
   2  -5  -7   17.78    0.66
  -2   5  -7   16.71    0.62
   2   5   7   17.10    0.58
   2  -5  -7   16.02    0.59
   2   5   7   18.10    0.64
  -2   5  -7   16.75    0.58
  -2  -5   7   17.07    0.63
  -3  -5  -7   45.80    1.44
   3  -5   7   44.25    1.45
  -3   5   7   43.48    1.43
  -3  -5  -7   43.37    1.40
   3   5  -7   45.60    1.44
  -3   5   7   43.40    1.40
   3  -5   7   44.32    1.44
   3   5   7   44.93    1.46
  -3  -5   7   43.43    1.42
  -3  -5   7   44.64    1.45
   3  -5  -7   44.74    1.49
  -3   5  -7   43.62    1.45
   3   5   7   45.65    1.41
  -4   5   7   27.48    0.96
   4   5  -7   27.63    0.96
  -4  -5  -7   28.01    0.95
  -4  -5  -7   27.53    0.93
   4  -5   7   28.09    0.95
   4  -5   7   27.89    0.99
  -4   5   7   27.00    0.93
   4  -5  -7   26.72    1.01
  -4  -5   7   26.93    0.96
   4   5   7   28.19    0.99
  -4   5  -7   28.09    0.97
   5   5  -7    7.67    0.44
   5  -5   7    7.24    0.49
  -5   5   7    7.80    0.45
  -5  -5  -7    7.35    0.41
  -5   5   7    6.74    0.41
  -5  -5  -7    8.21    0.43
  -5   5  -7    8.30    0.47
   5  -5  -7    7.53    0.54
  -5  -5   7    6.92    0.44
   5   5   7    8.28    0.48
   6  -5   7    5.87    0.51
  -6  -5  -7    6.22    0.41
  -6   5   7    5.45    0.43
  -6   5   7    6.88    0.45
   6   5  -7    4.86    0.43
  -6  -5   7    5.51    0.45
  -6   5  -7    5.56    0.46
   6   5   7    6.24    0.48
   6  -5  -7    5.79    0.56
   0  -6  -7  185.01    5.64
   0  -6   7  182.01    5.64
   0   6   7  187.02    5.63
   0   6  -7  176.72    5.62
   0   6   7  184.63    5.66
   0   6  -7  187.50    5.64
   1  -6   7    9.37    0.41
  -1   6   7    9.28    0.44
   1  -6   7    8.92    0.37
  -1  -6  -7   10.03    0.41
   1   6  -7    9.42    0.40
  -1   6   7    9.16    0.39
  -1  -6   7    9.48    0.42
  -1   6  -7    9.89    0.43
   1  -6  -7    8.82    0.40
   1   6   7   10.27    0.44
  -1   6  -7    9.34    0.40
   1   6   7   10.32    0.40
  -2  -6  -7   69.13    2.12
   2  -6   7   69.80    2.17
  -2   6   7   66.97    2.16
   2  -6   7   67.86    2.15
  -2  -6  -7   69.72    2.17
   2   6  -7   67.98    2.15
  -2   6  -7   66.05    2.13
   2   6   7   69.62    2.13
  -2   6  -7   68.34    2.17
   2  -6  -7   66.10    2.14
   2  -6  -7   68.36    2.19
  -2  -6   7   70.07    2.17
   2   6   7   71.31    2.18
  -2  -6   7   68.42    2.15
   3  -6   7   11.51    0.48
  -3  -6  -7   10.93    0.43
  -3  -6  -7   11.39    0.49
  -3   6   7   10.98    0.47
   3  -6   7   10.60    0.50
   3   6  -7   11.08    0.48
  -3  -6   7   11.71    0.51
   3   6   7   11.51    0.45
   3  -6  -7   11.90    0.57
   3   6   7   11.61    0.52
  -3  -6   7   11.29    0.48
  -3   6  -7   11.61    0.52
  -4  -6  -7   13.99    0.57
  -4  -6  -7   14.38    0.55
   4  -6   7   14.03    0.58
   4   6  -7   13.81    0.59
  -4   6   7   14.35    0.59
   4  -6   7   14.10    0.62
   4  -6  -7   13.97    0.66
  -4   6  -7   14.71    0.60
   4   6   7   14.66    0.61
  -4  -6   7   13.20    0.60
   5   6  -7    3.85    0.37
   5  -6   7    4.08    0.44
  -5  -6  -7    4.17    0.38
  -5  -6  -7    4.17    0.34
  -5   6   7    4.02    0.39
   5  -6  -7    4.16    0.48
  -5  -6   7    3.90    0.40
   5   6   7    4.03    0.40
  -5   6  -7    4.15    0.39
  -6   6   7    1.26    0.38
  -6  -6  -7    1.20    0.33
   6   6  -7    0.80    0.35
   6  -6   7    1.17    0.44
   6  -6  -7    0.15    0.47
  -6   6  -7    1.27    0.39
   6   6   7    1.43    0.39
  -6  -6   7    1.35    0.40
   0   7  -7    4.29    0.29
   0  -7   7    4.40    0.32
   0   7  -7    4.18    0.30
   0   7   7    4.38    0.32
   0   7   7    4.84    0.29
   0  -7  -7    4.30    0.32
  -1   7   7   77.68    2.42
   1  -7   7   76.78    2.43
  -1  -7  -7   78.52    2.43
   1   7  -7   77.19    2.41
  -1   7   7   75.51    2.44
  -1  -7   7   76.82    2.42
   1  -7  -7   75.77    2.41
   1   7   7   74.55    2.43
   1   7   7   78.14    2.40
  -1   7  -7   79.10    2.42
  -1   7  -7   77.06    2.40
   2   7  -7    1.66    0.27
   2  -7   7    1.67    0.25
  -2  -7  -7    2.02    0.28
   2  -7   7    1.74    0.26
  -2   7   7    2.00    0.26
  -2  -7   7    1.73    0.29
  -2  -7   7    1.67    0.25
   2  -7  -7    2.07    0.27
  -2   7  -7    2.36    0.28
   2   7   7    2.26    0.29
   2  -7  -7    2.16    0.33
   2   7   7    2.04    0.24
  -2   7  -7    2.13    0.25
  -3  -7  -7   17.05    0.66
  -3   7   7   16.91    0.66
   3  -7   7   16.13    0.66
   3   7  -7   17.94    0.67
   3  -7   7   17.50    0.67
  -3  -7   7   17.25    0.68
   3   7   7   17.42    0.69
  -3  -7   7   17.87    0.66
  -3   7  -7   17.96    0.68
   3  -7  -7   16.88    0.73
   3   7   7   17.49    0.63
  -4  -7  -7    1.03    0.27
   4   7  -7    0.82    0.30
   4  -7   7    0.75    0.27
   4  -7   7    0.74    0.33
  -4   7   7    0.84    0.29
   4   7   7    1.07    0.30
  -4   7  -7    0.84    0.30
  -4  -7   7    1.12    0.33
   4  -7  -7    0.85    0.38
  -5   7   7   -0.08    0.33
  -5  -7  -7   -0.21    0.27
   5   7  -7    0.00    0.32
   5  -7   7   -0.22    0.36
  -5  -7   7    0.25    0.34
   5   7   7    0.38    0.33
  -5   7  -7   -0.14    0.33
   5  -7  -7    0.58    0.44
   6   7  -7    0.04    0.36
  -6   7   7   -0.04    0.38
   6  -7   7    0.85    0.43
  -6   7  -7    0.03    0.38
  -6  -7   7   -0.01    0.39
   6   7   7    0.96    0.38
   6  -7  -7    0.01    0.48
   0   8  -7   12.79    0.52
   0  -8  -7   12.33    0.53
   0   8  -7   13.50    0.53
   0   8   7   13.57    0.52
   0   8   7   13.39    0.56
   0  -8   7   12.29    0.54
  -1   8   7    0.76    0.27
   1  -8   7    0.19    0.23
  -1  -8  -7    0.25    0.22
   1   8  -7    0.46    0.24
  -1   8   7    0.09    0.21
   1   8   7    0.46    0.22
  -1   8  -7    0.42    0.25
  -1   8  -7    0.48    0.23
   1   8   7    0.29    0.24
  -1  -8   7   -0.08    0.23
   1  -8  -7    0.28    0.22
   2  -8   7    3.40    0.33
  -2   8   7    3.60    0.33
  -2  -8  -7    3.54    0.32
   2   8  -7    3.93    0.35
   2   8   7    4.16    0.30
  -2  -8   7    3.60    0.35
   2  -8  -7    3.54    0.32
  -2  -8   7    4.14    0.35
   2  -8  -7    3.65    0.38
  -2   8  -7    4.11    0.33
  -2   8  -7    3.74    0.30
   2   8   7    4.06    0.34
   3  -8   7    6.93    0.41
   3  -8   7    6.34    0.42
   3   8  -7    6.53    0.42
  -3  -8  -7    6.04    0.40
  -3   8   7    6.24    0.40
  -3   8  -7    7.16    0.41
   3   8   7    6.23    0.35
   3   8   7    6.30    0.40
   3  -8  -7    6.28    0.46
  -3  -8   7    6.14    0.40
  -3  -8   7    6.41    0.41
   4  -8   7    0.43    0.36
  -4   8   7    0.65    0.31
   4  -8   7    1.28    0.30
  -4  -8  -7    0.62    0.27
   4   8  -7    0.68    0.32
   4  -8  -7    0.55    0.39
   4   8   7    1.16    0.32
  -4  -8   7    1.02    0.34
  -4   8  -7    1.14    0.31
   5  -8   7    1.73    0.41
  -5   8   7    2.03    0.39
  -5  -8  -7    2.04    0.32
   5   8  -7    2.14    0.38
   5   8   7    2.84    0.40
  -5  -8   7    2.11    0.40
   5  -8  -7    2.05    0.49
  -5   8  -7    2.78    0.41
   0   9  -7    8.31    0.41
   0   9   7    7.89    0.45
   0  -9  -7    7.37    0.42
   0   9  -7    7.59    0.41
   0  -9   7    7.05    0.43
   0   9   7    7.72    0.40
  -1   9   7    5.96    0.37
  -1  -9  -7    5.36    0.38
   1  -9   7    5.72    0.40
   1   9  -7    6.35    0.39
  -1   9   7    5.96    0.41
  -1   9  -7    6.96    0.39
  -1  -9   7    5.80    0.42
   1   9   7    6.31    0.37
  -1   9  -7    6.35    0.38
   1  -9  -7    5.79    0.40
   1   9   7    6.51    0.39
  -2  -9  -7    2.70    0.32
   2  -9   7    2.54    0.34
   2   9  -7    2.92    0.35
  -2   9   7    2.50    0.33
   2   9   7    2.47    0.32
  -2   9  -7    3.03    0.32
   2  -9  -7    2.46    0.32
   2  -9  -7    2.59    0.38
   2   9   7    2.64    0.30
  -2   9  -7    2.33    0.29
  -2  -9   7    2.43    0.34
  -3   9   7    5.72    0.40
  -3  -9  -7    5.95    0.40
   3  -9   7    5.56    0.42
   3   9  -7    6.13    0.42
  -3  -9   7    6.18    0.42
  -3  -9   7    5.43    0.41
   3   9   7    5.65    0.36
   3  -9  -7    5.07    0.47
  -3   9  -7    5.81    0.41
   3   9   7    6.40    0.41
   4   9  -7    6.02    0.45
   4  -9   7    6.26    0.44
  -4   9   7    6.55    0.44
  -4  -9  -7    5.81    0.43
   4  -9   7    6.17    0.48
  -4  -9   7    5.31    0.44
   4  -9  -7    5.39    0.51
  -4   9  -7    6.12    0.42
   4   9   7    6.24    0.42
  -5   9   7    4.84    0.46
   5  -9   7    4.28    0.46
   5   9  -7    4.77    0.46
  -5  -9  -7    4.82    0.44
  -5   9  -7    5.51    0.46
   5   9   7    5.41    0.45
   5  -9  -7    4.78    0.56
  -5  -9   7    4.39    0.46
   0  10  -7   23.99    0.84
   0  10  -7   23.23    0.84
   0  10   7   23.37    0.83
   0 -10  -7   22.14    0.85
   0 -10   7   21.79    0.86
   0  10   7   23.90    0.87
   1 -10   7    3.27    0.37
  -1 -10  -7    3.19    0.37
  -1  10   7    4.07    0.34
   1  10  -7    3.65    0.36
   1  10   7    4.30    0.37
   1 -10  -7    3.46    0.36
  -1  10  -7    3.54    0.34
  -1 -10   7    3.48    0.38
  -1  10  -7    3.87    0.34
   1  10   7    3.32    0.33
  -2  10   7   34.27    1.17
  -2 -10  -7   32.42    1.18
   2  10  -7   35.69    1.17
   2 -10   7   33.39    1.18
   2 -10  -7   34.18    1.20
   2  10   7   35.33    1.23
  -2  10  -7   35.29    1.19
   2 -10  -7   34.58    1.24
   2  10   7   36.13    1.18
  -2 -10   7   35.54    1.22
  -2  10  -7   35.74    1.20
  -3 -10  -7    2.89    0.38
   3 -10   7    3.47    0.39
   3  10  -7    3.70    0.41
  -3  10   7    4.04    0.39
   3  10   7    3.67    0.38
  -3 -10   7    4.01    0.40
  -3  10  -7    3.22    0.39
   3  10   7    3.18    0.34
   3 -10  -7    3.61    0.46
  -3 -10   7    3.02    0.40
   4 -10   7   18.19    0.76
  -4 -10  -7   18.78    0.77
  -4  10   7   17.52    0.76
   4  10  -7   18.35    0.76
  -4  10  -7   18.71    0.77
  -4 -10   7   19.54    0.80
   4 -10  -7   19.41    0.85
   4  10   7   19.32    0.80
   5  10  -7    1.36    0.43
  -5  10   7    1.71    0.42
  -5 -10  -7    1.42    0.38
   5 -10  -7    1.00    0.51
  -5 -10   7    1.64    0.43
  -5  10  -7    1.27    0.40
   0 -11  -7   -0.13    0.28
   0  11  -7    0.15    0.28
   0 -11   7    0.00    0.30
   0  11   7   -0.19    0.28
   0  11   7   -0.14    0.31
  -1 -11  -7   48.04    1.65
   1  11  -7   49.73    1.63
  -1  11   7   50.61    1.63
   1  11   7   50.79    1.67
  -1  11  -7   52.56    1.67
   1 -11  -7   51.76    1.71
  -1  11  -7   50.81    1.67
   1 -11  -7   50.79    1.69
   1  11   7   53.50    1.71
  -1 -11   7   47.64    1.70
  -2  11   7    1.81    0.33
  -2 -11  -7    1.18    0.33
   2  11  -7    1.66    0.36
   2 -11   7    1.27    0.33
  -2  11  -7    2.04    0.34
  -2  11  -7    1.21    0.32
   2 -11  -7    1.17    0.32
   2  11   7    1.56    0.31
   2  11   7    1.37    0.34
  -2 -11   7    1.37    0.36
   2 -11  -7    1.53    0.39
  -3  11   7   31.14    1.12
   3  11  -7   32.58    1.13
  -3 -11  -7   30.16    1.13
   3 -11  -7   31.33    1.22
   3  11   7   33.54    1.20
  -3  11  -7   34.64    1.17
   4  11  -7    0.82    0.40
   4 -11   7   -0.23    0.35
  -4 -11  -7    0.47    0.35
  -4  11   7    0.04    0.36
   4 -11  -7   -0.22    0.45
  -4  11  -7    0.18    0.33
  -4 -11   7    0.31    0.40
   0  12  -7   44.85    1.50
   0 -12  -7   43.64    1.52
   0 -12   7   39.93    1.52
   0  12  -7   48.03    1.50
   0  12   7   46.11    1.53
   0  12   7   46.39    1.50
   1  12  -7    0.32    0.34
  -1 -12  -7    0.73    0.32
  -1  12   7    0.82    0.34
   1  12  -7    0.68    0.35
   1 -12   7    0.24    0.36
  -1  12  -7    0.68    0.33
  -1  12  -7    1.23    0.33
   1 -12  -7    1.27    0.35
   1  12   7    1.27    0.38
  -1 -12   7    0.90    0.37
   1  12   7    1.24    0.32
   1 -12  -7    1.13    0.38
  -2  12   7   23.54    0.87
   2  12  -7   23.78    0.88
  -2 -12  -7   21.09    0.88
   2 -12   7   21.88    0.89
   2 -12  -7   22.90    0.93
   2  12   7   22.97    0.86
   2 -12  -7   22.16    0.90
  -2  12  -7   24.04    0.87
  -2  12  -7   24.51    0.88
   2  12   7   23.01    0.91
  -2 -12   7   22.46    0.92
   3  12  -7    1.35    0.40
   3 -12   7    0.78    0.37
  -3 -12  -7    0.66    0.34
  -3  12   7    0.62    0.38
  -3 -12   7    0.56    0.39
   3 -12  -7    0.41    0.45
  -3  12  -7    0.95    0.36
   3  12   7    1.31    0.33
   0  13   7    2.69    0.41
   0 -13  -7    2.56    0.40
   0 -13   7    1.99    0.41
   0  13   7    2.55    0.38
   0  13  -7    2.55    0.38
   1  13  -7    6.90    0.45
  -1 -13  -7    6.11    0.50
   1 -13   7    6.15    0.53
  -1  13   7    7.66    0.49
   1  13  -7    6.47    0.47
   1 -13  -7    6.31    0.51
   1 -13  -7    7.38    0.52
   1  13   7    6.73    0.46
  -1  13  -7    6.90    0.47
  -1 -13   7    6.78    0.55
   2  13  -7    3.30    0.43
  -2 -13  -7    2.89    0.44
  -2  13   7    2.41    0.39
   2 -13   7    2.18    0.42
  -2 -13   7    2.21    0.44
   2 -13  -7    2.59    0.41
  -2  13  -7    3.29    0.41
   2 -13  -7    3.21    0.49
   2  13   7    3.29    0.38
   3 -13   7    1.76    0.44
   3  13  -7    2.28    0.44
  -3 -13  -7    2.29    0.42
  -3  13   7    1.51    0.43
  -3 -13   7    1.96    0.45
   3  13   7    2.35    0.38
   3 -13  -7    2.01    0.49
   0  14   7   -0.39    0.36
   0  14  -7    0.17    0.35
   0 -14   7   -0.37    0.39
   0 -14  -7   -0.31    0.38
  -1  14   7    0.02    0.37
  -1 -14  -7    0.07    0.37
   1 -14   7    0.15    0.41
   1  14  -7    1.08    0.37
   1 -14  -7    0.32    0.38
   1  14   7    0.48    0.36
  -1 -14   7    0.11    0.41
   1 -14  -7    0.12    0.43
  -1  14  -7    0.42    0.37
   0   0  -8  128.44    4.02
   0   0   8  126.49    4.03
   0   0   8  138.59    4.00
   0   0   8  130.47    4.02
  -1   0   8   94.56    2.97
   1   0   8   97.24    2.96
   1   0   8   95.32    2.97
  -1   0   8   97.64    2.95
  -1   0  -8   94.66    2.96
  -1   0   8   97.40    2.96
  -1   0   8   94.82    2.95
   2   0  -8   64.79    2.07
  -2   0  -8   64.41    2.06
   2   0   8   67.08    2.07
  -2   0   8   64.92    2.05
  -2   0   8   68.33    2.05
   2   0   8   66.00    2.08
  -2   0   8   66.37    2.06
   3   0   8   63.87    1.97
   3   0   8   60.98    1.95
  -3   0  -8   62.76    1.96
  -3   0   8   62.27    1.95
   3   0  -8   62.82    1.97
  -3   0   8   59.39    1.95
  -4   0   8   18.55    0.70
   4   0   8   18.86    0.74
   4   0  -8   20.58    0.75
   4   0   8   19.31    0.69
  -4   0  -8   19.69    0.71
  -4   0   8   19.09    0.70
  -5   0   8   11.26    0.53
   5   0  -8   12.48    0.59
   5   0   8   12.41    0.58
  -5   0   8   11.22    0.53
  -5   0  -8   13.02    0.51
  -5   0  -8   12.45    0.54
  -6   0   8    0.25    0.33
  -6   0  -8   -0.22    0.32
   6   0  -8   -0.25    0.40
   6   0   8    0.43    0.35
   0   1  -8  118.56    3.64
   0  -1   8  121.60    3.66
   0   1   8  118.17    3.67
   0  -1  -8  118.97    3.65
   0   1   8  122.68    3.64
   0   1  -8  118.09    3.66
   0  -1   8  115.54    3.66
   0   1   8  118.65    3.66
   1  -1   8   68.76    2.10
  -1   1   8   65.49    2.08
  -1   1   8   65.94    2.09
  -1   1   8   69.53    2.09
   1  -1   8   66.54    2.10
  -1   1   8   67.50    2.11
  -1  -1  -8   68.00    2.09
   1   1   8   68.22    2.11
   1   1   8   67.63    2.10
  -1  -1   8   69.97    2.09
  -1  -1   8   67.17    2.10
  -1  -1   8   65.52    2.09
  -1   1  -8   66.59    2.10
  -1  -1   8   66.93    2.10
  -2  -1  -8   41.10    1.32
   2  -1   8   43.08    1.33
   2  -1   8   42.12    1.34
  -2   1   8   42.76    1.32
  -2   1   8   40.71    1.31
  -2   1   8   40.76    1.32
   2   1  -8   40.13    1.32
  -2  -1   8   41.41    1.32
  -2  -1   8   41.73    1.33
  -2   1  -8   42.32    1.33
   2   1   8   41.99    1.34
  -2  -1   8   40.14    1.31
   2   1   8   42.11    1.33
   2  -1  -8   40.98    1.34
  -3  -1  -8   50.09    1.55
   3   1  -8   47.22    1.55
  -3   1   8   48.27    1.54
   3  -1   8   48.66    1.55
   3  -1   8   49.26    1.57
  -3   1   8   47.74    1.54
  -3  -1   8   46.94    1.56
  -3  -1   8   50.19    1.53
   3   1   8   49.15    1.56
   3   1   8   48.52    1.59
  -3   1  -8   50.05    1.57
  -3  -1   8   49.11    1.57
   3  -1  -8   49.28    1.59
  -4   1   8   26.69    0.97
  -4  -1  -8   28.87    0.98
  -4   1   8   28.03    0.98
   4   1  -8   28.91    1.00
   4  -1   8   29.84    1.02
   4  -1   8   29.53    0.97
  -4  -1  -8   30.07    0.97
   4   1   8   29.97    1.01
  -4  -1   8   27.17    0.97
  -4   1  -8   28.89    0.98
  -4  -1   8   27.36    0.97
   4  -1  -8   29.22    1.02
   5  -1   8    2.97    0.38
  -5  -1  -8    3.28    0.33
  -5   1   8    2.54    0.32
  -5  -1  -8    2.18    0.29
  -5   1   8    2.67    0.32
   5   1  -8    2.57    0.32
   5   1  -8    2.43    0.38
   5   1   8    2.59    0.38
  -5  -1   8    2.56    0.32
  -5   1  -8    2.91    0.32
   5  -1  -8    2.79    0.39
   6  -1   8    3.54    0.42
   6   1  -8    2.81    0.36
  -6   1   8    2.96    0.37
  -6  -1  -8    3.13    0.37
  -6   1   8    3.44    0.36
   6   1  -8    3.66    0.44
   6  -1  -8    3.32    0.48
   6   1   8    3.73    0.42
  -6  -1   8    3.37    0.40
  -6   1  -8    3.51    0.39
   0  -2  -8   23.65    0.76
   0   2  -8   23.55    0.75
   0  -2   8   23.48    0.77
   0   2   8   24.20    0.80
   0  -2   8   23.44    0.78
   0   2   8   23.02    0.75
  -1   2   8   15.34    0.53
  -1   2   8   15.65    0.57
   1  -2   8   15.57    0.55
   1  -2   8   15.63    0.55
   1   2  -8   16.12    0.54
  -1  -2  -8   15.35    0.53
  -1  -2  -8   15.79    0.55
   1   2   8   16.14    0.57
   1   2   8   15.19    0.50
  -1  -2   8   15.48    0.54
  -1  -2   8   15.75    0.53
   1  -2  -8   14.58    0.53
  -1   2  -8   15.22    0.55
  -2   2   8   28.60    0.92
  -2   2   8   28.10    0.93
   2  -2   8   27.17    0.94
  -2  -2  -8   29.05    0.92
   2   2  -8   27.86    0.93
   2  -2   8   29.09    0.94
   2   2  -8   27.52    0.92
  -2  -2  -8   29.48    0.93
  -2  -2   8   30.01    0.95
  -2  -2   8   29.20    0.93
   2   2   8   29.29    0.97
   2  -2  -8   28.75    0.97
   2  -2  -8   25.70    0.92
  -2   2  -8   29.48    0.96
   3   2  -8   32.53    1.10
  -3   2   8   33.91    1.10
   3   2  -8   32.29    1.10
  -3  -2  -8   34.41    1.10
   3  -2   8   35.10    1.13
  -3   2   8   33.23    1.10
  -3  -2  -8   34.16    1.11
   3  -2   8   34.28    1.11
  -3   2  -8   34.37    1.12
   3  -2  -8   34.95    1.15
  -3  -2   8   32.70    1.12
  -3  -2   8   34.45    1.08
   3   2   8   33.00    1.14
   4   2  -8   12.78    0.54
  -4   2   8   12.51    0.53
  -4  -2  -8   13.27    0.52
  -4   2   8   12.10    0.52
  -4  -2  -8   14.01    0.53
   4  -2   8   13.60    0.58
   4  -2   8   13.54    0.52
   4   2  -8   12.71    0.54
  -4  -2   8   11.63    0.53
   4   2   8   13.30    0.57
   4  -2  -8   13.19    0.60
  -4   2  -8   13.14    0.54
  -5  -2  -8    2.40    0.31
   5   2  -8    2.33    0.35
  -5   2   8    2.82    0.32
  -5   2   8    2.22    0.31
   5  -2   8    2.32    0.37
   5   2  -8    2.06    0.31
  -5  -2  -8    2.51    0.30
   5  -2  -8    2.24    0.41
  -5   2  -8    2.43    0.32
  -5  -2   8    2.02    0.33
   5   2   8    2.71    0.36
  -6   2   8    0.91    0.32
  -6   2   8    0.55    0.34
   6  -2   8    0.18    0.37
  -6  -2  -8    0.43    0.33
   6   2  -8    0.95    0.33
   6  -2  -8    0.19    0.42
  -6   2  -8    0.83    0.35
  -6  -2   8    1.15    0.35
   6   2   8    0.60    0.36
   0   3  -8   10.10    0.36
   0   3   8    9.93    0.36
   0  -3  -8   10.12    0.39
   0  -3   8    9.52    0.37
   0  -3  -8   10.51    0.36
   0  -3   8   10.20    0.40
   0   3   8   10.07    0.42
  -1  -3  -8   28.61    0.91
   1  -3   8   26.88    0.89
   1   3  -8   26.70    0.89
  -1   3   8   27.29    0.93
  -1  -3  -8   27.80    0.87
  -1   3   8   26.81    0.89
   1  -3   8   27.85    0.91
   1   3   8   27.83    0.86
  -1   3  -8   27.46    0.91
  -1   3  -8   25.93    0.86
   1  -3  -8   27.19    0.89
  -1  -3   8   26.80    0.88
   1   3   8   28.60    0.92
  -1  -3   8   27.84    0.90
  -2   3   8   53.92    1.75
   2   3  -8   52.94    1.73
  -2  -3  -8   57.88    1.77
  -2  -3  -8   55.57    1.74
   2   3  -8   56.97    1.76
   2  -3   8   55.03    1.76
  -2   3   8   58.22    1.74
   2  -3   8   56.29    1.77
   2   3   8   56.85    1.79
   2  -3  -8   54.96    1.75
  -2  -3   8   56.12    1.76
  -2   3  -8   56.04    1.78
  -2  -3   8   56.16    1.78
   2  -3  -8   57.34    1.81
  -3  -3  -8    6.24    0.30
   3   3  -8    5.80    0.31
  -3   3   8    6.05    0.31
   3  -3   8    5.68    0.36
  -3   3   8    5.77    0.33
  -3  -3  -8    6.49    0.33
   3  -3   8    6.40    0.34
   3   3  -8    6.29    0.34
  -3  -3   8    5.83    0.30
   3  -3  -8    6.25    0.41
  -3   3  -8    7.29    0.36
   3   3   8    6.77    0.38
  -3  -3   8    6.50    0.36
   4   3  -8    2.14    0.29
  -4  -3  -8    2.12    0.27
   4  -3   8    1.91    0.32
  -4   3   8    2.64    0.31
  -4  -3  -8    2.03    0.27
   4  -3   8    2.23    0.27
  -4   3   8    1.88    0.26
   4  -3  -8    2.45    0.37
  -4   3  -8    2.23    0.31
  -4  -3   8    2.23    0.31
   4   3   8    2.53    0.35
  -5  -3  -8    0.60    0.24
  -5  -3  -8    0.88    0.28
   5  -3   8    1.21    0.34
   5   3  -8    0.86    0.28
  -5   3   8    0.72    0.30
  -5   3   8    1.09    0.29
   5   3   8    1.07    0.34
  -5   3  -8    0.68    0.31
   5  -3  -8    0.55    0.38
  -5  -3   8    0.44    0.32
  -6   3   8    2.55    0.37
   6   3  -8    2.62    0.37
  -6  -3  -8    2.66    0.37
  -6   3   8    2.77    0.37
   6  -3   8    2.60    0.40
  -6   3  -8    3.10    0.39
   6  -3  -8    3.73    0.51
   6   3   8    2.48    0.39
  -6  -3   8    3.14    0.40
   0  -4   8  134.11    4.10
   0  -4  -8  130.30    4.08
   0   4   8  133.99    4.14
   0   4   8  135.14    4.10
   0  -4  -8  136.72    4.12
   0   4  -8  130.68    4.10
   0  -4   8  136.49    4.12
  -1   4   8   51.38    1.66
   1   4  -8   51.61    1.62
  -1  -4  -8   52.50    1.64
   1  -4   8   50.64    1.62
  -1   4   8   51.28    1.62
  -1  -4  -8   51.19    1.60
   1  -4   8   52.77    1.64
   1   4   8   52.19    1.60
   1   4   8   52.19    1.64
  -1  -4   8   53.57    1.62
   1  -4  -8   49.38    1.61
  -1   4  -8   49.41    1.59
  -1   4  -8   50.86    1.63
  -2   4   8   25.66    0.86
   2  -4   8   24.52    0.86
   2   4  -8   23.79    0.82
  -2   4   8   26.80    0.84
   2   4  -8   25.87    0.86
  -2  -4  -8   26.88    0.87
   2  -4   8   25.86    0.87
  -2  -4  -8   27.08    0.84
  -2  -4   8   26.65    0.90
   2  -4  -8   24.34    0.87
   2  -4  -8   26.85    0.93
  -2   4  -8   26.74    0.90
   2   4   8   27.25    0.92
   2   4   8   26.87    0.85
  -2  -4   8   27.01    0.88
   3   4  -8    6.67    0.36
  -3  -4  -8    7.17    0.32
   3  -4   8    6.28    0.38
   3  -4   8    6.21    0.36
  -3   4   8    7.09    0.37
  -3  -4  -8    6.82    0.35
  -3   4   8    6.45    0.31
  -3  -4   8    6.86    0.34
  -3   4  -8    7.49    0.40
   3  -4  -8    7.12    0.44
  -3  -4   8    7.33    0.39
   3   4   8    7.41    0.40
  -4   4   8    3.56    0.30
   4  -4   8    3.83    0.32
  -4  -4  -8    4.36    0.30
  -4  -4  -8    3.96    0.32
   4  -4   8    3.50    0.36
  -4   4   8    4.19    0.34
   4   4  -8    3.87    0.33
  -4  -4   8    3.54    0.35
  -4   4  -8    4.45    0.35
   4   4   8    4.18    0.36
   4  -4  -8    4.67    0.42
  -5  -4  -8    0.90    0.26
   5   4  -8    0.89    0.30
  -5  -4  -8    1.11    0.28
  -5   4   8    0.49    0.29
   5  -4   8    0.77    0.35
  -5   4   8    0.92    0.31
   5  -4  -8    1.28    0.41
  -5   4  -8    1.20    0.33
   5   4   8    1.46    0.34
  -5  -4   8    0.49    0.33
   6   4  -8    0.19    0.33
  -6   4   8    0.78    0.33
   6  -4   8    0.42    0.39
  -6   4   8    0.59    0.35
  -6  -4  -8    0.39    0.33
   6   4   8    0.79    0.38
  -6  -4   8    1.13    0.37
   6  -4  -8    0.60    0.46
  -6   4  -8    0.55    0.35
   0   5   8   28.00    0.91
   0  -5   8   28.65    0.94
   0   5  -8   28.27    0.94
   0   5  -8   28.19    0.91
   0   5   8   29.14    0.96
   0  -5   8   25.97    0.89
   0  -5  -8   28.21    0.93
  -1   5   8  107.81    3.38
  -1   5   8  108.75    3.42
   1  -5   8  108.89    3.37
  -1  -5  -8  113.33    3.40
   1  -5   8  111.55    3.40
   1   5  -8  108.26    3.38
   1   5   8  113.32    3.41
  -1  -5   8  109.48    3.43
   1  -5  -8  110.66    3.42
  -1   5  -8  109.18    3.41
  -1   5  -8  105.99    3.44
   1   5   8  116.81    3.46
  -2  -5  -8   35.91    1.16
   2  -5   8   36.36    1.17
   2  -5   8   34.92    1.15
  -2  -5  -8   34.87    1.12
  -2   5   8   34.29    1.15
  -2   5   8   35.07    1.12
   2   5  -8   36.16    1.16
   2   5   8   37.53    1.12
  -2  -5   8   35.19    1.14
  -2   5  -8   33.10    1.11
   2   5   8   34.39    1.17
   2  -5  -8   35.38    1.19
  -2  -5   8   35.08    1.16
  -2   5  -8   35.88    1.17
   2  -5  -8   33.59    1.13
  -3   5   8   25.66    0.89
  -3   5   8   24.58    0.85
   3  -5   8   25.94    0.91
   3   5  -8   25.86    0.89
  -3  -5  -8   25.76    0.85
  -3  -5  -8   25.77    0.89
   3  -5   8   26.39    0.89
   3   5   8   25.50    0.91
   3  -5  -8   26.51    0.95
  -3  -5   8   24.97    0.87
  -3   5  -8   26.57    0.91
  -3  -5   8   25.13    0.90
   4   5  -8    4.90    0.36
  -4  -5  -8    4.83    0.36
  -4   5   8    4.38    0.32
   4  -5   8    4.53    0.40
   4  -5   8    5.32    0.36
  -4  -5  -8    4.82    0.31
  -4   5   8    5.89    0.37
   4  -5  -8    5.17    0.44
  -4  -5   8    4.89    0.38
  -4   5  -8    5.09    0.38
   4   5   8    5.68    0.38
   5   5  -8    1.99    0.34
  -5  -5  -8    2.25    0.34
  -5   5   8    2.69    0.36
  -5  -5  -8    2.89    0.33
   5  -5   8    2.67    0.40
   5   5   8    2.83    0.35
  -5   5  -8    2.86    0.37
  -5  -5   8    2.59    0.36
   5  -5  -8    2.50    0.45
  -6  -5  -8    1.11    0.35
  -6   5   8    1.08    0.37
   6  -5   8    0.87    0.43
   6   5  -8    0.77    0.35
   6   5   8    1.07    0.38
   6  -5  -8    0.40    0.45
  -6   5  -8    0.56    0.37
  -6  -5   8    1.95    0.39
   0   6  -8   83.33    2.63
   0   6   8   87.28    2.64
   0   6  -8   85.54    2.66
   0  -6   8   82.29    2.65
   0   6   8   84.41    2.67
   0  -6  -8   86.67    2.65
   1  -6   8   21.60    0.76
   1   6  -8   22.52    0.78
  -1   6   8   23.10    0.83
   1  -6   8   23.93    0.80
  -1  -6  -8   23.81    0.79
  -1   6   8   21.84    0.78
   1   6   8   23.60    0.83
   1  -6  -8   21.12    0.79
  -1  -6   8   23.29    0.81
  -1   6  -8   23.61    0.79
   1   6   8   24.09    0.78
  -1   6  -8   24.13    0.82
  -2   6   8   17.34    0.66
   2   6  -8   18.60    0.66
   2  -6   8   17.57    0.65
   2  -6   8   18.06    0.67
  -2  -6  -8   18.22    0.66
  -2   6  -8   17.50    0.63
  -2   6  -8   17.63    0.68
   2  -6  -8   17.55    0.65
   2   6   8   18.99    0.69
  -2  -6   8   18.56    0.66
  -2  -6   8   17.73    0.67
   2  -6  -8   17.73    0.71
   2   6   8   18.75    0.63
   3   6  -8   21.95    0.80
  -3  -6  -8   22.38    0.75
  -3   6   8   20.90    0.79
   3  -6   8   22.19    0.81
  -3  -6  -8   22.39    0.80
   3  -6   8   22.95    0.80
   3  -6  -8   21.29    0.85
  -3   6  -8   23.03    0.82
   3   6   8   23.16    0.83
  -3  -6   8   22.08    0.78
  -3  -6   8   21.80    0.81
   4  -6   8    4.72    0.36
   4  -6   8    4.79    0.41
   4   6  -8    4.34    0.36
  -4   6   8    4.35    0.37
  -4  -6  -8    4.93    0.37
  -4  -6  -8    5.24    0.32
   4   6   8    5.92    0.40
  -4   6  -8    5.21    0.39
  -4  -6   8    4.76    0.40
   4  -6  -8    5.56    0.45
  -5   6   8    7.03    0.45
  -5  -6  -8    6.79    0.40
   5   6  -8    6.41    0.43
  -5  -6  -8    6.76    0.43
   5  -6   8    6.67    0.49
  -5  -6   8    6.40    0.45
   5  -6  -8    6.57    0.55
   5   6   8    7.03    0.46
  -5   6  -8    7.25    0.47
   6   6  -8    4.96    0.44
  -6   6   8    4.34    0.46
  -6  -6  -8    5.12    0.41
   6  -6   8    4.64    0.51
   6  -6  -8    4.13    0.55
  -6   6  -8    5.11    0.46
   6   6   8    5.22    0.47
  -6  -6   8    4.53    0.47
   0   7  -8   17.30    0.65
   0  -7  -8   17.82    0.67
   0   7   8   19.14    0.69
   0  -7   8   17.50    0.67
   0   7   8   17.64    0.65
   0   7  -8   18.42    0.67
   1  -7   8    3.06    0.31
  -1   7   8    3.70    0.34
  -1  -7  -8    2.75    0.29
  -1   7   8    3.36    0.29
   1   7  -8    3.14    0.30
  -1   7  -8    3.07    0.28
  -1   7  -8    3.51    0.31
  -1  -7   8    2.83    0.30
   1  -7  -8    2.98    0.28
   1   7   8    3.40    0.31
   1   7   8    3.36    0.27
  -2   7   8   14.78    0.56
   2  -7   8   13.48    0.57
   2   7  -8   14.95    0.57
   2  -7   8   13.57    0.55
  -2  -7  -8   13.72    0.57
   2   7   8   13.58    0.58
   2  -7  -8   12.96    0.53
  -2   7  -8   13.63    0.53
  -2  -7   8   13.77    0.56
  -2   7  -8   14.14    0.57
   2  -7  -8   13.39    0.61
  -2  -7   8   13.95    0.57
   2   7   8   14.57    0.52
   3  -7   8    3.47    0.34
  -3   7   8    2.94    0.33
   3  -7   8    3.20    0.34
  -3  -7  -8    3.29    0.32
   3   7  -8    3.08    0.34
   3   7   8    3.48    0.34
   3  -7  -8    3.14    0.40
   3   7   8    3.35    0.28
  -3   7  -8    3.40    0.35
  -3  -7   8    3.40    0.36
  -3  -7   8    3.22    0.32
   4  -7   8   11.84    0.57
   4   7  -8   11.42    0.53
  -4  -7  -8   11.57    0.54
   4  -7   8   11.91    0.54
  -4   7   8   10.86    0.53
   4  -7  -8   10.49    0.59
  -4   7  -8   11.48    0.54
  -4  -7   8   10.41    0.54
   4   7   8   11.56    0.54
  -5   7   8    2.34    0.37
  -5  -7  -8    2.25    0.34
   5   7  -8    1.70    0.35
   5  -7   8    1.79    0.41
   5   7   8    2.24    0.37
  -5  -7   8    1.93    0.38
   5  -7  -8    1.98    0.48
  -5   7  -8    1.83    0.38
   0  -8   8    8.67    0.46
   0   8   8    9.91    0.49
   0   8  -8   10.48    0.46
   0   8   8    9.94    0.44
   0   8  -8    9.73    0.45
   0  -8  -8    9.43    0.46
  -1  -8  -8   -0.02    0.23
  -1   8   8    0.45    0.27
  -1   8   8    0.22    0.23
   1   8  -8    0.49    0.26
   1  -8   8    0.03    0.25
   1  -8  -8    0.32    0.22
   1   8   8    0.13    0.25
  -1  -8   8    0.01    0.25
   1   8   8    0.41    0.22
  -1   8  -8    0.67    0.27
  -1   8  -8    0.02    0.24
  -2   8   8   11.40    0.52
   2  -8   8   11.19    0.53
   2   8  -8   12.29    0.52
  -2  -8  -8   11.72    0.53
   2   8   8   12.45    0.54
   2  -8  -8   11.42    0.56
  -2   8  -8   11.30    0.52
  -2  -8   8   11.68    0.53
   2   8   8   11.74    0.48
   2  -8  -8   11.31    0.51
  -2   8  -8   11.11    0.48
   3   8  -8    8.79    0.46
  -3   8   8    7.99    0.44
  -3  -8  -8    7.55    0.45
   3  -8   8    8.16    0.46
   3  -8   8    8.18    0.45
   3   8   8    7.51    0.43
   3   8   8    8.22    0.39
  -3   8  -8    8.09    0.45
  -3  -8   8    8.33    0.45
  -3  -8   8    7.46    0.44
   3  -8  -8    6.88    0.50
  -4   8   8    1.95    0.34
  -4  -8  -8    1.68    0.30
   4  -8   8    1.80    0.33
   4   8  -8    1.52    0.34
   4  -8   8    1.46    0.37
   4   8   8    1.89    0.34
  -4   8  -8    1.62    0.36
   4  -8  -8    0.56    0.39
  -4  -8   8    1.40    0.36
  -5  -8  -8    5.15    0.43
  -5   8   8    4.99    0.45
   5   8  -8    5.18    0.46
   5  -8   8    4.98    0.49
   5   8   8    5.72    0.44
  -5   8  -8    4.76    0.45
   5  -8  -8    3.86    0.54
  -5  -8   8    4.95    0.45
   0   9   8    3.03    0.31
   0   9  -8    3.18    0.33
   0   9   8    3.07    0.36
   0  -9  -8    2.27    0.33
   0  -9   8    3.04    0.35
   0   9  -8    2.58    0.32
  -1   9   8   24.17    0.85
  -1  -9  -8   23.28    0.87
   1   9  -8   25.06    0.86
  -1   9   8   23.96    0.89
   1  -9   8   22.93    0.87
   1  -9  -8   23.44    0.88
  -1   9  -8   24.60    0.87
  -1   9  -8   25.05    0.86
   1   9   8   24.22    0.89
  -1  -9   8   23.68    0.89
   1   9   8   24.69    0.85
   2  -9   8    0.62    0.28
   2   9  -8    0.99    0.32
  -2  -9  -8    0.49    0.26
  -2   9   8    0.86    0.28
  -2   9  -8    0.74    0.27
   2   9   8    1.41    0.26
  -2   9  -8    0.81    0.30
  -2  -9   8    0.89    0.29
   2  -9  -8    0.95    0.27
   2  -9  -8    1.04    0.35
   2   9   8    1.43    0.31
  -3  -9  -8    4.19    0.38
   3  -9   8    4.05    0.40
  -3   9   8    3.94    0.38
   3   9  -8    4.53    0.40
   3   9   8    4.56    0.39
  -3  -9   8    4.33    0.40
  -3  -9   8    4.55    0.39
   3  -9  -8    4.09    0.45
  -3   9  -8    4.64    0.39
   3   9   8    4.57    0.34
  -4   9   8    1.20    0.35
   4   9  -8    1.74    0.37
   4  -9   8    1.68    0.34
  -4  -9  -8    1.12    0.32
   4  -9  -8    1.42    0.43
  -4  -9   8    1.22    0.38
   4   9   8    1.80    0.36
  -4   9  -8    1.81    0.37
  -5  -9  -8    0.44    0.33
   5   9  -8    0.34    0.38
  -5   9   8   -0.04    0.37
   5  -9   8    0.69    0.42
   5  -9  -8    0.18    0.49
   5   9   8    0.35    0.36
  -5  -9   8    0.36    0.40
  -5   9  -8    0.42    0.38
   0 -10  -8   16.64    0.71
   0  10   8   18.24    0.73
   0  10  -8   18.36    0.69
   0 -10   8   16.67    0.71
   0  10   8   17.92    0.68
   0  10  -8   17.56    0.68
   1 -10   8    7.93    0.47
   1  10  -8    7.49    0.44
  -1  10   8    7.83    0.48
  -1 -10  -8    7.82    0.46
  -1  10   8    8.36    0.44
  -1 -10   8    8.04    0.47
  -1  10  -8    8.19    0.45
   1 -10  -8    7.33    0.46
   1  10   8    8.42    0.47
   1  10   8    7.58    0.43
  -1  10  -8    8.24    0.44
  -2 -10  -8    2.81    0.37
   2  10  -8    3.41    0.38
   2 -10   8    3.07    0.39
  -2  10   8    3.65    0.37
  -2  10  -8    3.21    0.33
   2  10   8    3.51    0.33
   2 -10  -8    2.51    0.37
   2 -10  -8    3.58    0.42
  -2 -10   8    3.12    0.39
   2  10   8    3.23    0.37
  -2  10  -8    3.23    0.35
  -3 -10  -8    3.76    0.40
   3 -10   8    4.18    0.43
   3  10  -8    5.15    0.44
  -3  10   8    4.57    0.42
   3  10   8    5.28    0.36
   3  10   8    4.45    0.41
   3 -10  -8    4.78    0.48
  -3 -10   8    4.93    0.44
  -3 -10   8    4.55    0.43
  -3  10  -8    4.56    0.41
   4  10  -8    3.52    0.44
  -4  10   8    2.14    0.38
   4 -10   8    2.05    0.37
  -4 -10  -8    2.24    0.36
   4  10   8    2.78    0.40
  -4 -10   8    2.42    0.44
   4 -10  -8    1.95    0.46
  -4  10  -8    2.57    0.40
   0  11   8   -0.37    0.31
   0 -11  -8    0.19    0.30
   0  11  -8    0.00    0.29
   0 -11   8   -0.34    0.31
   0  11   8   -0.05    0.28
   0  11  -8    0.55    0.31
  -1  11   8    0.61    0.29
   1  11  -8    0.41    0.33
   1 -11   8    0.39    0.32
  -1 -11  -8    0.14    0.31
   1  11   8   -0.28    0.28
  -1  11  -8    0.70    0.30
   1 -11  -8    0.04    0.31
   1  11   8    0.81    0.34
  -1 -11   8    0.37    0.32
  -1  11  -8    0.29    0.30
  -2 -11  -8    5.86    0.46
   2  11  -8    7.87    0.48
  -2  11   8    6.95    0.46
   2 -11   8    6.09    0.49
  -2 -11   8    6.57    0.49
   2 -11  -8    6.55    0.45
   2  11   8    6.49    0.41
  -2  11  -8    6.72    0.43
   2  11   8    6.46    0.45
   2 -11  -8    6.23    0.49
  -3  11   8    2.52    0.40
   3 -11   8    2.10    0.38
   3  11  -8    2.80    0.41
  -3 -11  -8    2.06    0.37
  -3  11  -8    3.15    0.39
   3  11   8    2.49    0.35
  -3 -11   8    2.37    0.40
   3  11   8    2.94    0.39
   3 -11  -8    3.05    0.48
  -4 -11  -8    3.08    0.45
  -4  11   8    3.21    0.43
   4 -11   8    3.38    0.46
   4  11  -8    3.38    0.47
  -4 -11   8    3.62    0.48
   4 -11  -8    2.60    0.50
  -4  11  -8    3.05    0.42
   0 -12   8    2.20    0.39
   0  12  -8    3.22    0.36
   0  12  -8    3.26    0.38
   0  12   8    2.55    0.37
   0  12   8    2.97    0.39
   0 -12  -8    2.36    0.38
   1  12  -8    0.86    0.35
   1  12  -8    0.77    0.35
   1 -12   8    0.49    0.35
  -1  12   8    0.35    0.31
  -1 -12  -8    0.59    0.33
   1  12   8    0.68    0.32
   1 -12  -8    0.83    0.39
   1  12   8    0.12    0.37
  -1 -12   8    0.45    0.36
  -1  12  -8    0.80    0.34
   1 -12  -8    0.66    0.34
  -1  12  -8    0.57    0.32
   2  12  -8    3.34    0.41
   2 -12   8    2.36    0.41
  -2  12   8    3.06    0.39
  -2 -12  -8    2.94    0.42
   2 -12  -8    2.65    0.39
   2  12   8    3.15    0.40
  -2 -12   8    1.98    0.41
   2  12   8    3.08    0.37
   2 -12  -8    3.13    0.45
  -2  12  -8    2.88    0.38
  -3 -12  -8    3.28    0.45
   3  12  -8    3.48    0.45
  -3  12   8    3.63    0.44
   3 -12   8    3.56    0.47
  -3  12  -8    3.93    0.43
  -3 -12   8    3.61    0.49
   3 -12  -8    3.20    0.52
   3  12   8    3.69    0.38
   0  13   8   -0.21    0.33
   0 -13  -8   -0.08    0.35
   0 -13   8   -0.05    0.37
   0  13  -8    0.81    0.36
   0  13  -8    0.11    0.34
   0  13   8    0.23    0.36
   1  13  -8    4.20    0.41
   1  13  -8    3.93    0.43
  -1  13   8    3.41    0.40
   1 -13   8    2.56    0.43
  -1 -13  -8    3.73    0.45
  -1 -13   8    3.41    0.48
   1  13   8    4.43    0.41
   1  13   8    4.20    0.46
  -1  13  -8    3.91    0.42
  -1  13  -8    3.96    0.42
   1 -13  -8    3.46    0.46
   1 -13  -8    4.97    0.49
  -2  13   8    1.50    0.38
   2 -13   8    0.43    0.40
  -2 -13  -8    0.81    0.37
   2  13  -8    1.37    0.42
   2 -13  -8    0.99    0.37
  -2 -13   8    0.25    0.39
   2 -13  -8    1.10    0.44
   2  13   8    1.01    0.35
   0  14   8    2.78    0.42
   0 -14   8    1.99    0.45
   0  14  -8    2.84    0.42
   0 -14  -8    2.01    0.44
   1  14  -8    0.21    0.37
  -1 -14  -8   -0.11    0.38
   1 -14   8   -0.27    0.41
  -1  14   8    0.44    0.35
   1 -14  -8    0.12    0.43
  -1  14  -8   -0.26    0.36
  -1 -14   8    0.50    0.41
   1 -14  -8    0.11    0.39
   1  14   8    0.04    0.34
   0   0   9    0.10    0.13
   0   0   9    0.10    0.16
   0   0   9    0.00    0.12
   0   0  -9    0.04    0.15
   1   0   9    2.67    0.21
  -1   0   9    2.17    0.20
  -1   0   9    2.41    0.22
  -1   0  -9    2.54    0.21
  -1   0   9    2.13    0.20
   1   0   9    2.46    0.22
  -2   0   9   83.39    2.48
  -2   0  -9   81.01    2.50
  -2   0   9   77.60    2.49
   2   0  -9   77.92    2.51
   2   0   9   81.17    2.50
   2   0   9   81.73    2.51
  -2   0   9   78.55    2.49
  -3   0  -9    2.74    0.26
   3   0  -9    2.12    0.30
  -3   0   9    2.12    0.26
  -3   0   9    2.08    0.25
   3   0   9    2.08    0.30
   3   0   9    2.10    0.24
   4   0   9    1.27    0.22
   4   0   9    1.13    0.30
  -4   0   9    1.31    0.28
  -4   0   9    1.08    0.28
   4   0  -9    1.30    0.33
  -4   0  -9    1.33    0.27
  -5   0   9    7.94    0.46
   5   0  -9    8.14    0.51
   5   0   9    9.26    0.51
  -5   0  -9    8.75    0.45
  -5   0  -9    8.93    0.43
  -5   0   9    8.00    0.45
  -6   0   9    7.60    0.49
  -6   0  -9    8.37    0.49
   6   0  -9    7.96    0.56
   6   0   9    7.57    0.51
   0  -1  -9   26.54    0.89
   0   1   9   27.00    0.92
   0   1  -9   28.09    0.91
   0   1   9   27.22    0.90
   0  -1   9   26.51    0.90
   0  -1   9   27.76    0.90
   0   1   9   27.93    0.87
   0   1  -9   27.99    0.87
  -1   1   9   42.63    1.43
   1  -1   9   44.85    1.41
  -1  -1  -9   45.91    1.40
   1  -1   9   43.99    1.41
  -1   1   9   44.02    1.40
  -1   1   9   44.28    1.39
  -1  -1   9   43.53    1.43
  -1  -1   9   44.54    1.42
   1   1   9   44.54    1.44
   1   1   9   45.19    1.43
  -1   1  -9   43.76    1.43
  -1  -1   9   47.01    1.41
  -2   1   9   23.26    0.80
  -2  -1  -9   24.93    0.81
  -2   1   9   24.23    0.81
   2  -1   9   24.95    0.84
   2   1  -9   24.98    0.83
   2  -1   9   24.49    0.83
  -2   1   9   23.69    0.81
   2   1   9   24.62    0.83
  -2  -1   9   24.07    0.81
   2  -1  -9   24.85    0.86
   2   1   9   24.85    0.85
  -2  -1   9   24.40    0.83
  -2  -1   9   25.18    0.83
  -2   1  -9   24.88    0.83
   3  -1   9   47.37    1.49
   3   1  -9   44.91    1.49
  -3   1   9   45.74    1.49
   3  -1   9   47.27    1.51
  -3   1   9   45.09    1.49
  -3  -1  -9   48.14    1.49
  -3  -1   9   46.02    1.52
   3   1   9   47.75    1.54
  -3   1  -9   48.12    1.52
  -3  -1   9   45.75    1.51
   3  -1  -9   46.81    1.54
   3   1   9   48.61    1.52
  -4  -1  -9    6.33    0.35
  -4   1   9    6.06    0.38
  -4   1   9    6.41    0.37
   4   1  -9    6.25    0.41
  -4  -1  -9    6.56    0.37
   4  -1   9    6.08    0.36
   4  -1   9    6.61    0.42
  -4   1  -9    6.63    0.39
   4   1   9    6.36    0.41
   4  -1  -9    6.55    0.44
  -4  -1   9    5.66    0.38
  -5   1   9    4.36    0.37
   5   1  -9    4.37    0.35
  -5  -1  -9    4.27    0.36
   5  -1   9    4.86    0.34
   5  -1   9    4.75    0.40
  -5   1   9    4.46    0.36
  -5  -1  -9    4.98    0.35
   5   1  -9    4.91    0.42
  -5   1  -9    4.78    0.38
  -5  -1   9    4.17    0.37
   5  -1  -9    3.66    0.43
   5   1   9    5.15    0.40
   6   1  -9    1.64    0.35
  -6  -1  -9    2.10    0.36
   6  -1   9    2.15    0.41
  -6   1   9    2.36    0.37
  -6   1   9    2.12    0.38
   6  -1  -9    1.67    0.46
   6   1   9    1.70    0.40
  -6   1  -9    1.60    0.37
  -6  -1   9    1.73    0.39
   0  -2   9  102.66    3.19
   0  -2  -9  103.54    3.18
   0   2   9  103.23    3.17
   0   2   9  102.31    3.21
   0   2  -9  105.09    3.17
   0  -2   9  102.16    3.19
   0   2  -9  104.18    3.20
  -1   2   9   36.93    1.22
  -1  -2  -9   36.74    1.18
   1   2  -9   38.14    1.18
   1  -2   9   37.81    1.20
   1  -2   9   37.04    1.20
  -1   2   9   36.64    1.18
   1   2   9   38.45    1.22
   1  -2  -9   35.85    1.19
   1   2   9   36.78    1.15
  -1  -2   9   36.58    1.19
  -1  -2   9   37.73    1.19
  -1   2  -9   37.64    1.21
   2   2  -9   70.96    2.26
   2  -2   9   71.76    2.28
   2   2  -9   73.80    2.27
  -2   2   9   73.79    2.26
   2  -2   9   73.24    2.28
  -2  -2  -9   72.94    2.26
  -2  -2  -9   74.21    2.28
  -2   2   9   71.15    2.26
   2  -2  -9   70.06    2.24
  -2  -2   9   72.52    2.27
   2   2   9   74.07    2.28
   2  -2  -9   70.95    2.28
  -2   2  -9   72.01    2.27
  -2  -2   9   73.97    2.25
   3  -2   9   27.44    0.94
   3   2  -9   26.96    0.91
  -3   2   9   26.12    0.91
   3  -2   9   27.08    0.92
  -3  -2  -9   27.53    0.91
  -3  -2  -9   27.52    0.92
   3   2  -9   26.61    0.91
  -3   2   9   27.25    0.90
  -3  -2   9   27.24    0.95
   3  -2  -9   27.73    0.98
  -3   2  -9   28.44    0.95
   3   2   9   27.94    0.96
  -3  -2   9   26.90    0.90
  -4  -2  -9   30.74    1.01
  -4   2   9   29.59    1.00
   4  -2   9   31.26    1.01
   4   2  -9   28.11    1.00
  -4  -2  -9   30.12    1.00
   4   2  -9   28.68    1.01
  -4   2   9   28.79    1.01
   4  -2   9   28.94    1.03
   4  -2  -9   30.78    1.07
   4   2   9   29.30    1.05
  -4  -2   9   27.93    1.02
  -4   2  -9   30.96    1.03
  -5  -2  -9    0.79    0.29
   5  -2   9    0.57    0.33
   5   2  -9    0.26    0.28
  -5   2   9    0.52    0.30
  -5   2   9    0.70    0.30
  -5  -2  -9    0.59    0.24
   5  -2  -9    0.12    0.37
  -5  -2   9    0.74    0.32
   5   2   9    0.81    0.33
  -5   2  -9    0.83    0.31
  -6   2   9    1.57    0.36
   6  -2   9    1.58    0.39
  -6  -2  -9    1.86    0.36
  -6   2   9    2.20    0.37
   6   2  -9    2.05    0.36
  -6   2  -9    1.82    0.37
  -6  -2   9    1.89    0.40
   6   2   9    1.97    0.41
   6  -2  -9    1.78    0.48
   0  -3  -9   18.41    0.60
   0   3  -9   17.65    0.64
   0  -3   9   18.34    0.64
   0   3   9   17.69    0.66
   0   3  -9   17.73    0.60
   0  -3   9   17.59    0.62
   0   3   9   18.78    0.60
   0  -3  -9   18.25    0.63
   1  -3   9   66.79    2.13
  -1  -3  -9   66.67    2.11
  -1  -3  -9   71.21    2.14
   1  -3   9   69.16    2.14
   1   3  -9   69.80    2.12
  -1   3   9   68.34    2.16
  -1   3   9   65.94    2.12
  -1   3  -9   63.93    2.06
   1   3   9   68.01    2.07
  -1   3  -9   68.98    2.12
   1   3   9   67.99    2.12
  -1  -3   9   68.08    2.10
  -1  -3   9   66.12    2.08
   1  -3  -9   66.72    2.09
  -2   3   9   17.46    0.62
   2  -3   9   17.87    0.64
   2   3  -9   16.49    0.60
   2  -3   9   17.78    0.63
  -2  -3  -9   17.80    0.60
  -2  -3  -9   17.51    0.63
  -2   3   9   18.31    0.61
   2   3  -9   17.51    0.63
  -2  -3   9   17.65    0.65
   2  -3  -9   17.64    0.67
  -2   3  -9   18.06    0.65
   2  -3  -9   16.22    0.61
   2   3   9   18.55    0.66
  -2  -3   9   17.94    0.62
  -3  -3  -9   58.42    1.80
   3  -3   9   55.62    1.80
   3   3  -9   54.70    1.79
  -3  -3  -9   58.34    1.78
  -3   3   9   56.36    1.79
   3  -3   9   57.72    1.80
  -3   3   9   55.95    1.77
   3   3  -9   53.24    1.77
   3   3   9   57.80    1.87
  -3   3  -9   58.67    1.86
  -3  -3   9   59.56    1.82
   3  -3  -9   57.47    1.89
  -3  -3   9   57.01    1.86
  -4   3   9    3.13    0.30
  -4  -3  -9    3.93    0.30
  -4  -3  -9    3.50    0.30
   4  -3   9    2.91    0.36
   4  -3   9    3.09    0.31
  -4   3   9    3.02    0.32
   4   3  -9    3.31    0.33
  -4  -3   9    3.42    0.33
  -4   3  -9    3.44    0.33
   4   3   9    3.47    0.35
   4  -3  -9    3.88    0.40
  -5  -3  -9    9.71    0.46
  -5   3   9    9.73    0.49
  -5   3   9    8.89    0.47
  -5  -3  -9   10.19    0.47
   5  -3   9    9.20    0.53
   5   3  -9    8.81    0.47
  -5  -3   9    9.08    0.50
   5   3   9    9.25    0.52
   5  -3  -9    9.92    0.58
  -5   3  -9    9.28    0.50
  -6   3   9    3.31    0.40
   6   3  -9    3.66    0.39
   6  -3   9    3.41    0.43
  -6   3   9    3.73    0.39
  -6  -3  -9    3.61    0.39
   6   3   9    3.84    0.44
  -6  -3   9    3.07    0.42
   6  -3  -9    4.31    0.52
  -6   3  -9    4.14    0.41
   0  -4  -9   32.04    1.06
   0   4  -9   34.11    1.11
   0  -4  -9   33.84    1.10
   0  -4   9   33.62    1.08
   0  -4   9   35.06    1.11
   0   4   9   34.41    1.13
   0   4   9   33.98    1.08
   0   4  -9   32.91    1.07
  -1  -4  -9    0.16    0.16
  -1   4   9    0.41    0.22
   1  -4   9    0.04    0.18
   1  -4   9    0.14    0.17
  -1   4   9    0.11    0.17
   1   4  -9   -0.04    0.18
  -1  -4  -9    0.16    0.12
   1  -4  -9   -0.03    0.15
   1   4   9    0.23    0.13
  -1   4  -9    0.25    0.15
  -1  -4   9   -0.26    0.17
   1   4   9    0.27    0.21
  -1   4  -9    0.27    0.21
   2  -4   9   22.15    0.76
  -2  -4  -9   21.99    0.71
   2   4  -9   21.33    0.75
  -2   4   9   21.28    0.71
  -2  -4  -9   21.57    0.75
   2  -4   9   20.84    0.75
  -2   4   9   20.56    0.74
   2   4   9   21.64    0.77
  -2  -4   9   22.02    0.77
   2  -4  -9   20.33    0.73
  -2  -4   9   20.82    0.74
   2  -4  -9   21.24    0.79
   2   4   9   21.66    0.70
  -2   4  -9   22.21    0.77
  -3   4   9    6.01    0.34
   3  -4   9    5.64    0.34
  -3  -4  -9    5.64    0.34
   3  -4   9    5.19    0.36
   3   4  -9    5.67    0.35
  -3  -4  -9    5.71    0.30
  -3   4   9    5.48    0.30
  -3  -4   9    5.88    0.37
   3  -4  -9    5.41    0.42
  -3  -4   9    5.62    0.32
  -3   4  -9    6.03    0.39
   3   4   9    6.41    0.37
   4   4  -9   26.80    0.95
   4  -4   9   26.99    0.98
  -4   4   9   26.17    0.95
  -4   4   9   26.84    0.92
   4  -4   9   27.51    0.95
  -4  -4  -9   28.01    0.95
  -4  -4  -9   27.85    0.93
   4  -4  -9   25.84    1.00
   4   4   9   27.36    0.97
  -4  -4   9   25.41    0.95
  -4   4  -9   28.40    0.96
   5  -4   9    5.96    0.45
  -5  -4  -9    7.06    0.41
  -5  -4  -9    6.87    0.39
   5   4  -9    5.77    0.42
  -5   4   9    6.63    0.43
  -5   4   9    6.22    0.39
  -5   4  -9    6.72    0.45
   5  -4  -9    6.61    0.52
   5   4   9    6.85    0.46
  -5  -4   9    6.20    0.44
   6  -4   9    5.73    0.49
   6   4  -9    4.65    0.43
  -6  -4  -9    5.77    0.42
  -6   4   9    5.20    0.45
  -6   4   9    4.74    0.42
  -6  -4   9    5.33    0.46
   6  -4  -9    5.12    0.55
   6   4   9    5.06    0.46
  -6   4  -9    5.60    0.45
   0  -5   9   21.72    0.78
   0   5   9   23.03    0.75
   0   5  -9   23.34    0.79
   0   5  -9   22.05    0.75
   0  -5  -9   21.60    0.77
   0   5   9   22.85    0.81
   1  -5   9    3.47    0.25
  -1   5   9    4.13    0.33
  -1  -5  -9    4.03    0.20
  -1   5   9    4.09    0.27
  -1  -5  -9    3.80    0.28
   1   5  -9    4.47    0.28
   1  -5   9    3.92    0.30
   1   5   9    4.85    0.26
  -1   5  -9    5.31    0.32
   1  -5  -9    3.07    0.28
  -1  -5   9    4.12    0.30
   1   5   9    4.97    0.34
  -1   5  -9    3.99    0.25
   2  -5   9    8.40    0.41
   2   5  -9    8.84    0.40
  -2  -5  -9    8.70    0.40
  -2   5   9    8.61    0.39
   2  -5   9    7.47    0.38
  -2  -5  -9    8.62    0.34
  -2  -5   9    9.05    0.44
   2   5   9    9.17    0.36
   2  -5  -9    8.29    0.38
  -2  -5   9    8.43    0.40
   2   5   9    9.06    0.44
   2  -5  -9    8.05    0.46
  -2   5  -9    9.32    0.44
  -3  -5  -9   21.60    0.77
  -3  -5  -9   21.41    0.73
   3  -5   9   21.15    0.78
   3  -5   9   21.71    0.78
   3   5  -9   21.23    0.77
  -3   5   9   21.27    0.77
  -3  -5   9   21.00    0.79
   3   5   9   21.52    0.80
  -3  -5   9   21.53    0.75
  -3   5  -9   22.17    0.80
   3  -5  -9   21.48    0.83
   4   5  -9   11.40    0.53
  -4  -5  -9   12.40    0.49
  -4  -5  -9   12.37    0.53
   4  -5   9   12.51    0.53
   4  -5   9   11.32    0.56
  -4   5   9   11.27    0.53
   4   5   9   12.70    0.56
   4  -5  -9   11.50    0.61
  -4   5  -9   13.08    0.57
  -4  -5   9   10.92    0.54
  -5  -5  -9    7.95    0.42
   5   5  -9    6.28    0.44
   5  -5   9    7.17    0.48
  -5   5   9    6.83    0.46
  -5  -5  -9    7.20    0.44
   5   5   9    7.65    0.48
  -5   5  -9    7.20    0.47
   5  -5  -9    7.25    0.57
  -5  -5   9    6.68    0.46
   6   5  -9    2.36    0.39
   6  -5   9    2.80    0.44
  -6  -5  -9    2.83    0.38
  -6   5   9    1.77    0.40
   6  -5  -9    2.43    0.51
  -6  -5   9    2.76    0.43
   6   5   9    3.14    0.43
  -6   5  -9    1.83    0.41
   0  -6  -9    0.83    0.22
   0   6   9    1.77    0.27
   0   6  -9    1.55    0.23
   0   6  -9    1.69    0.26
   0  -6   9    1.06    0.23
   0   6   9    1.64    0.20
   1  -6   9   49.23    1.59
  -1   6   9   47.77    1.61
  -1  -6  -9   49.13    1.58
   1   6  -9   49.25    1.57
  -1   6   9   49.92    1.57
   1   6   9   50.22    1.63
  -1   6  -9   49.52    1.58
   1   6   9   50.75    1.58
   1  -6  -9   49.54    1.60
  -1  -6   9   49.83    1.60
  -1   6  -9   49.54    1.61
   2  -6   9    2.20    0.26
   2  -6   9    1.88    0.28
  -2  -6  -9    1.91    0.25
  -2   6   9    2.19    0.27
   2   6  -9    2.06    0.28
   2   6   9    2.21    0.23
  -2  -6   9    1.65    0.30
   2  -6  -9    1.85    0.24
   2   6   9    1.81    0.29
  -2   6  -9    2.26    0.30
   2  -6  -9    1.86    0.33
  -2  -6   9    1.85    0.25
  -3  -6  -9    8.84    0.45
   3  -6   9    9.22    0.45
  -3   6   9    9.30    0.44
   3  -6   9    8.66    0.46
   3   6  -9    9.55    0.45
  -3  -6   9    8.92    0.42
   3   6   9    8.90    0.45
   3  -6  -9    9.10    0.52
  -3  -6   9    8.32    0.47
  -3   6  -9    8.73    0.46
  -4   6   9    2.18    0.33
   4  -6   9    2.66    0.34
   4  -6   9    1.81    0.35
  -4  -6  -9    2.17    0.30
   4   6  -9    2.02    0.32
   4   6   9    2.28    0.33
   4  -6  -9    2.36    0.42
  -4  -6   9    2.83    0.35
  -4   6  -9    2.21    0.36
   5  -6   9    0.96    0.37
   5   6  -9    0.88    0.34
  -5   6   9    1.20    0.35
  -5  -6  -9    0.98    0.30
   5   6   9    1.62    0.37
  -5  -6   9    0.65    0.36
   5  -6  -9    1.13    0.45
  -5   6  -9    1.44    0.37
  -6   6   9    1.59    0.41
   6  -6   9    1.64    0.43
   6   6  -9    1.10    0.38
  -6   6  -9    2.26    0.42
   6  -6  -9    1.63    0.56
  -6  -6   9    1.42    0.41
   6   6   9    2.45    0.42
   0   7   9   80.46    2.47
   0   7  -9   75.80    2.44
   0   7  -9   76.62    2.42
   0  -7   9   74.28    2.44
   0  -7  -9   77.22    2.44
   0   7   9   79.53    2.42
  -1  -7  -9    8.46    0.43
  -1   7   9    9.49    0.48
   1  -7   9    8.80    0.44
  -1   7   9    8.77    0.42
   1   7  -9    9.09    0.43
   1  -7  -9    8.22    0.42
  -1   7  -9    8.28    0.43
  -1   7  -9    8.31    0.39
   1   7   9    8.43    0.45
  -1  -7   9    8.82    0.42
   1   7   9    8.58    0.39
   2   7  -9    5.04    0.35
  -2  -7  -9    4.60    0.35
   2  -7   9    4.17    0.35
  -2   7   9    4.62    0.33
  -2  -7   9    4.63    0.35
   2  -7  -9    4.04    0.41
   2  -7  -9    4.24    0.32
   2   7   9    4.43    0.36
   2   7   9    5.11    0.30
  -2   7  -9    4.24    0.35
   3  -7   9    4.75    0.37
   3  -7   9    4.83    0.36
   3   7  -9    5.05    0.39
  -3  -7  -9    5.08    0.37
  -3   7   9    4.70    0.36
  -3  -7   9    5.28    0.36
  -3  -7   9    4.72    0.40
   3  -7  -9    4.65    0.43
  -3   7  -9    4.70    0.39
   3   7   9    5.16    0.38
   4   7  -9    1.86    0.34
  -4   7   9    1.97    0.33
  -4  -7  -9    1.90    0.31
   4  -7   9    1.47    0.31
   4  -7   9    1.22    0.36
  -4  -7   9    2.18    0.37
   4  -7  -9    1.12    0.40
  -4   7  -9    2.41    0.36
   4   7   9    2.32    0.35
   5   7  -9   -0.40    0.33
  -5   7   9    0.27    0.36
  -5  -7  -9   -0.10    0.30
   5  -7   9   -0.58    0.39
   5   7   9    0.22    0.35
  -5   7  -9   -0.55    0.34
   5  -7  -9   -0.26    0.44
  -5  -7   9    0.22    0.36
   0   8  -9    8.28    0.43
   0   8   9    9.38    0.42
   0   8  -9    9.05    0.45
   0  -8  -9    8.76    0.45
   0   8   9    8.42    0.47
   0  -8   9    8.36    0.44
   1   8  -9    3.40    0.33
   1  -8   9    2.97    0.34
  -1   8   9    2.84    0.31
  -1  -8  -9    3.12    0.33
  -1   8   9    2.14    0.34
   1   8   9    3.48    0.29
   1   8   9    2.80    0.32
   1  -8  -9    2.85    0.31
  -1  -8   9    2.58    0.33
  -1   8  -9    3.52    0.31
  -1   8  -9    3.12    0.34
   2   8  -9   16.00    0.63
  -2  -8  -9   15.24    0.63
  -2   8   9   16.22    0.62
   2  -8   9   14.55    0.63
   2   8   9   15.32    0.64
   2   8   9   16.11    0.59
  -2   8  -9   15.84    0.64
   2  -8  -9   15.40    0.68
   2  -8  -9   15.39    0.62
  -2  -8   9   15.31    0.63
   3  -8   9    1.09    0.29
  -3   8   9    1.06    0.30
  -3  -8  -9    1.23    0.29
   3   8  -9    0.85    0.33
   3   8   9    1.28    0.33
  -3  -8   9    1.13    0.34
  -3   8  -9    1.06    0.32
   3  -8  -9    0.80    0.38
  -3  -8   9    1.20    0.29
  -4  -8  -9    6.10    0.44
   4  -8   9    6.71    0.47
  -4   8   9    5.91    0.43
   4  -8   9    5.90    0.44
   4   8  -9    6.59    0.46
  -4   8  -9    6.31    0.46
  -4  -8   9    6.46    0.46
   4   8   9    6.53    0.44
   4  -8  -9    5.87    0.51
  -5  -8  -9    2.85    0.40
   5  -8   9    3.82    0.46
  -5   8   9    2.80    0.42
   5   8  -9    3.22    0.43
   5   8   9    3.47    0.41
  -5   8  -9    2.85    0.43
  -5  -8   9    3.53    0.44
   5  -8  -9    2.78    0.53
   0  -9  -9   -0.32    0.26
   0   9   9   -0.07    0.31
   0  -9   9    0.14    0.27
   0   9  -9    0.33    0.28
   0   9   9    0.42    0.27
   0   9  -9    0.32    0.28
  -1  -9  -9    9.61    0.51
  -1   9   9   10.62    0.54
  -1   9   9   10.65    0.49
   1   9  -9   11.37    0.51
   1  -9   9   10.81    0.53
   1   9   9   10.66    0.52
   1  -9  -9    9.79    0.50
  -1   9  -9   10.58    0.49
  -1  -9   9    9.55    0.51
   1   9   9   11.61    0.48
  -1   9  -9   10.81    0.50
   2  -9   9    8.91    0.50
  -2   9   9    9.93    0.49
  -2  -9  -9    8.95    0.48
   2   9  -9   10.53    0.51
   2  -9  -9    9.33    0.53
  -2  -9   9    9.73    0.51
   2   9   9   10.13    0.51
   2   9   9   10.43    0.46
   2  -9  -9    9.22    0.49
  -2   9  -9    9.97    0.50
   3   9  -9    9.25    0.50
  -3  -9  -9    8.25    0.48
   3  -9   9    8.66    0.49
  -3   9   9    7.88    0.47
  -3  -9   9    8.96    0.51
  -3  -9   9    8.36    0.49
   3  -9  -9    7.94    0.54
   3   9   9    9.71    0.50
  -3   9  -9    9.18    0.50
   4  -9   9    5.47    0.46
  -4  -9  -9    5.17    0.43
   4   9  -9    5.94    0.47
  -4   9   9    5.44    0.44
   4   9   9    6.22    0.45
  -4   9  -9    5.60    0.46
   4  -9  -9    4.74    0.52
  -4  -9   9    5.90    0.48
  -5   9   9    4.46    0.46
   5   9  -9    4.41    0.48
  -5  -9  -9    4.55    0.45
  -5   9  -9    4.50    0.48
   5   9   9    5.41    0.46
  -5  -9   9    4.18    0.48
   5  -9  -9    4.13    0.57
   0 -10  -9    1.92    0.32
   0 -10   9    2.08    0.33
   0  10   9    2.51    0.36
   0  10  -9    3.02    0.35
   0  10   9    2.78    0.33
   0  10  -9    2.71    0.35
  -1  10   9   11.33    0.50
   1  10  -9   10.98    0.51
  -1  10   9   10.24    0.54
   1 -10   9    8.79    0.52
  -1 -10  -9    9.03    0.51
  -1 -10   9    9.10    0.53
  -1  10  -9   11.57    0.50
   1 -10  -9    9.21    0.52
  -1  10  -9   11.11    0.52
   1  10   9   10.17    0.52
   1  10   9   10.58    0.49
  -2 -10  -9    4.00    0.39
  -2  10   9    4.05    0.40
   2  10  -9    5.04    0.41
   2 -10   9    4.95    0.42
  -2  10  -9    5.20    0.40
   2  10   9    5.00    0.37
   2  10   9    4.98    0.41
   2 -10  -9    5.27    0.45
  -2 -10   9    4.47    0.44
   2 -10  -9    4.66    0.40
   3  10  -9   19.67    0.78
  -3 -10  -9   17.62    0.75
   3 -10   9   17.24    0.76
  -3  10   9   19.38    0.76
  -3  10  -9   19.65    0.78
   3 -10  -9   17.32    0.81
   3  10   9   19.75    0.80
  -3 -10   9   19.12    0.78
   4  10  -9    3.72    0.46
   4 -10   9    3.78    0.45
  -4 -10  -9    3.35    0.43
  -4  10   9    3.83    0.41
  -4  10  -9    3.24    0.44
  -4 -10   9    4.36    0.46
   4 -10  -9    3.28    0.50
   4  10   9    3.74    0.43
   0  11   9   13.32    0.57
   0 -11   9   10.87    0.60
   0 -11  -9   11.37    0.59
   0  11   9   13.01    0.61
   0  11  -9   12.23    0.56
   0  11  -9   12.62    0.57
  -1  11   9    0.32    0.36
  -1 -11  -9    0.19    0.31
   1  11  -9   -0.04    0.33
  -1  11   9   -0.32    0.29
   1 -11   9   -0.11    0.33
  -1 -11   9   -0.28    0.33
   1 -11  -9    0.28    0.31
   1  11   9   -0.06    0.29
   1  11   9    0.17    0.33
  -1  11  -9    0.29    0.30
  -1  11  -9   -0.48    0.31
   2  11  -9   20.59    0.80
  -2 -11  -9   19.63    0.80
   2 -11   9   17.82    0.80
  -2  11   9   19.48    0.77
   2  11   9   20.24    0.82
  -2  11  -9   20.49    0.80
   2  11   9   21.37    0.77
   2 -11  -9   19.15    0.84
  -2 -11   9   20.10    0.82
   2 -11  -9   19.15    0.80
  -3 -11  -9    0.20    0.32
  -3  11   9    0.58    0.37
   3 -11   9    0.72    0.36
   3  11  -9   -0.28    0.37
  -3  11  -9    0.56    0.37
  -3 -11   9    0.59    0.37
   3 -11  -9    0.24    0.43
   3  11   9    0.25    0.35
  -4 -11  -9    4.18    0.47
   4 -11   9    3.79    0.47
  -4  11   9    4.14    0.44
   4  11  -9    4.52    0.50
   4  11   9    4.69    0.46
  -4 -11   9    4.56    0.50
  -4  11  -9    3.96    0.45
   4 -11  -9    3.69    0.52
   0  12   9   -0.02    0.32
   0  12   9   -0.05    0.35
   0 -12  -9   -0.09    0.32
   0 -12   9   -0.04    0.35
   0  12  -9    0.40    0.33
   0  12  -9   -0.04    0.33
  -1  12   9    9.26    0.52
   1  12  -9    9.30    0.53
   1  12  -9    9.35    0.51
  -1 -12  -9    8.24    0.54
   1 -12   9    8.41    0.55
  -1  12  -9    9.79    0.53
   1  12   9    9.36    0.57
   1 -12  -9    8.28    0.53
  -1 -12   9    8.18    0.57
   1 -12  -9   10.13    0.57
   1  12   9    8.78    0.49
  -1  12  -9    9.75    0.51
   2 -12   9    0.80    0.36
  -2  12   9    0.96    0.36
  -2 -12  -9    0.75    0.35
   2  12  -9    1.15    0.39
  -2 -12   9    0.86    0.39
   2 -12  -9    1.77    0.44
   2  12   9    0.86    0.33
   2 -12  -9    1.15    0.36
   2  12   9    1.25    0.38
  -2  12  -9    0.38    0.34
   3 -12   9    2.21    0.42
   3  12  -9    3.62    0.47
  -3  12   9    3.67    0.45
  -3 -12  -9    2.99    0.45
   3  12   9    3.20    0.43
   3 -12  -9    3.35    0.51
  -3  12  -9    3.39    0.44
  -3 -12   9    2.75    0.45
   0  13   9    0.61    0.39
   0 -13  -9    0.63    0.37
   0 -13   9    0.05    0.38
   0  13  -9    0.77    0.36
   0  13   9    0.38    0.35
   0  13  -9    1.05    0.37
   1 -13   9   -0.06    0.38
   1  13  -9    1.02    0.38
  -1 -13  -9    0.71    0.37
   1  13  -9    0.66    0.39
  -1  13   9    0.69    0.35
  -1 -13   9    0.33    0.40
   1  13   9    0.83    0.40
   1 -13  -9    0.72    0.44
   1 -13  -9    0.10    0.37
   1  13   9    0.68    0.35
  -1  13  -9    0.53    0.35
  -1  13  -9    0.73    0.36
   2  13  -9    0.25    0.41
  -2  13   9   -0.06    0.37
  -2 -13  -9    0.15    0.36
   2 -13   9    0.49    0.40
  -2 -13   9    0.31    0.42
   2  13   9    0.21    0.34
  -2  13  -9    0.19    0.37
   2 -13  -9   -0.24    0.43
   0   0  10    1.47    0.20
   0   0  10    1.30    0.17
   0   0 -10    1.90    0.21
   0   0  10    1.47    0.21
  -1   0 -10   21.31    0.73
  -1   0  10   20.49    0.72
  -1   0  10   20.34    0.74
   1   0  10   21.09    0.73
  -1   0  10   21.97    0.71
   1   0  10   22.22    0.75
  -2   0 -10   19.49    0.68
   2   0 -10   18.68    0.70
   2   0  10   18.93    0.68
  -2   0  10   18.84    0.66
  -2   0  10   19.87    0.67
  -2   0  10   19.37    0.69
   2   0  10   19.49    0.70
   3   0 -10    3.44    0.34
  -3   0 -10    3.60    0.29
  -3   0  10    3.55    0.30
  -3   0  10    3.32    0.30
   3   0  10    3.42    0.33
   3   0  10    3.44    0.28
   4   0 -10   23.11    0.87
  -4   0  10   22.45    0.84
  -4   0  10   22.28    0.83
   4   0  10   23.61    0.83
  -4   0 -10   25.02    0.84
   4   0  10   23.58    0.87
   5   0 -10    1.27    0.37
  -5   0 -10    0.94    0.31
  -5   0 -10    1.06    0.25
   5   0  10    1.75    0.36
  -5   0  10    1.23    0.31
  -5   0  10    1.69    0.33
   6   0 -10    0.45    0.31
  -6   0 -10   -0.02    0.34
   6   0 -10    0.03    0.42
   6   0  10    0.50    0.38
  -6   0  10    0.18    0.38
   0  -1  10   25.56    0.86
   0   1 -10   26.05    0.82
   0  -1  10   25.42    0.85
   0   1  10   26.40    0.82
   0   1 -10   25.64    0.86
   0   1  10   25.01    0.87
   0  -1 -10   24.19    0.84
   0   1  10   25.52    0.85
  -1   1  10    2.80    0.25
   1  -1  10    2.57    0.24
   1  -1  10    2.82    0.24
  -1   1  10    2.87    0.22
  -1   1  10    2.87    0.22
  -1  -1 -10    2.84    0.23
  -1  -1  10    2.63    0.23
  -1  -1  10    2.53    0.23
   1   1  10    2.84    0.22
  -1   1 -10    3.12    0.25
   1   1  10    2.40    0.24
   2  -1  10    4.10    0.27
   2   1 -10    3.77    0.29
  -2   1  10    3.92    0.25
  -2   1  10    3.70    0.28
  -2  -1 -10    4.15    0.27
  -2   1  10    4.03    0.27
   2  -1  10    4.14    0.30
   2   1  10    4.25    0.29
  -2  -1  10    4.02    0.29
   2  -1 -10    3.51    0.32
  -2  -1  10    3.65    0.25
  -2  -1  10    4.26    0.28
   2   1  10    3.80    0.27
  -2   1 -10    4.22    0.29
  -3   1  10   44.20    1.41
  -3  -1 -10   44.50    1.41
   3   1 -10   41.33    1.41
   3  -1  10   43.90    1.43
   3  -1  10   44.42    1.41
  -3   1  10   42.27    1.40
   3   1  10   42.21    1.41
  -3  -1  10   41.71    1.38
  -3   1 -10   43.52    1.40
   3   1  10   44.23    1.39
  -3  -1  10   41.97    1.40
   3  -1 -10   43.15    1.42
  -4   1  10    0.19    0.27
  -4  -1 -10   -0.05    0.22
   4  -1  10    0.37    0.22
  -4  -1 -10    0.70    0.26
   4  -1  10    0.54    0.30
   4   1 -10    0.19    0.30
  -4   1  10    0.11    0.26
  -4   1 -10    0.34    0.27
   4   1  10    0.31    0.29
  -4  -1  10    0.50    0.28
   4  -1 -10    0.69    0.32
  -5  -1 -10    5.88    0.39
  -5   1  10    5.32    0.40
   5  -1  10    5.49    0.44
  -5   1  10    5.50    0.41
   5  -1  10    5.84    0.37
   5   1 -10    5.71    0.40
  -5  -1 -10    6.12    0.38
   5   1 -10    5.58    0.45
   5   1  10    5.49    0.42
  -5   1 -10    5.58    0.41
  -5  -1  10    5.29    0.40
   5  -1 -10    5.78    0.49
   6  -1  10    2.16    0.42
  -6   1  10    2.41    0.39
   6   1 -10    2.00    0.36
  -6   1  10    2.78    0.41
  -6  -1 -10    1.90    0.38
   6   1  10    1.70    0.41
  -6  -1  10    2.38    0.40
   6  -1 -10    2.29    0.48
  -6   1 -10    2.31    0.39
   0   2  10    3.22    0.26
   0   2 -10    3.39    0.27
   0  -2  10    3.23    0.25
   0  -2 -10    3.40    0.22
   0   2  10    3.13    0.20
   0   2 -10    3.21    0.20
   0  -2  10    3.63    0.25
   0   2  10    3.36    0.24
  -1   2  10    1.11    0.24
   1   2 -10    0.77    0.18
  -1   2  10    0.81    0.18
   1  -2  10    0.77    0.19
   1  -2  10    1.31    0.20
  -1  -2  10    1.22    0.20
   1   2  10    1.11    0.22
  -1  -2  10    0.33    0.17
   1  -2 -10    0.54    0.16
   1   2  10    0.87    0.12
   1   2  10    1.05    0.17
  -1   2 -10    1.03    0.22
   2  -2  10   22.02    0.78
  -2   2  10   22.21    0.76
   2   2 -10   21.72    0.76
  -2   2  10   23.34    0.76
   2  -2  10   22.49    0.78
  -2  -2 -10   22.81    0.77
   2   2 -10   21.13    0.76
  -2  -2 -10   21.75    0.75
   2  -2 -10   21.18    0.78
  -2  -2  10   22.09    0.73
   2   2  10   20.86    0.76
   2  -2 -10   20.46    0.72
  -2   2 -10   21.80    0.76
  -2  -2  10   21.57    0.76
   3   2 -10    1.82    0.26
  -3  -2 -10    1.50    0.23
   3   2 -10    1.62    0.25
  -3   2  10    1.62    0.25
  -3   2  10    1.45    0.26
   3  -2  10    1.48    0.29
   3  -2  10    1.42    0.23
  -3  -2 -10    1.24    0.23
  -3  -2  10    1.48    0.28
   3  -2 -10    2.04    0.32
   3   2  10    1.87    0.28
  -3   2 -10    2.00    0.28
   4  -2  10   19.57    0.77
  -4   2  10   19.04    0.73
  -4  -2 -10   20.18    0.73
   4   2 -10   20.14    0.74
   4  -2  10   20.47    0.74
  -4   2  10   19.84    0.74
  -4  -2 -10   20.65    0.74
   4  -2 -10   19.12    0.77
   4   2  10   19.35    0.76
  -4   2 -10   20.09    0.73
  -4  -2  10   18.25    0.73
  -5   2  10    2.75    0.35
   5  -2  10    2.31    0.32
   5   2 -10    2.71    0.34
  -5   2  10    2.39    0.33
   5  -2  10    2.96    0.39
  -5  -2 -10    2.29    0.33
  -5  -2 -10    2.44    0.32
   5  -2 -10    2.19    0.43
  -5   2 -10    2.30    0.36
   5   2  10    2.43    0.37
  -5  -2  10    2.08    0.37
  -6   2  10    6.03    0.44
  -6   2  10    5.26    0.45
   6  -2  10    5.83    0.48
   6   2 -10    5.17    0.44
  -6  -2 -10    5.59    0.43
   6  -2 -10    5.08    0.54
  -6  -2  10    4.48    0.46
  -6   2 -10    5.84    0.46
   6   2  10    4.97    0.46
   0   3  10   31.85    1.07
   0  -3  10   30.89    1.03
   0   3 -10   31.93    1.06
   0   3 -10   31.79    1.01
   0  -3 -10   31.74    1.01
   0  -3  10   30.99    1.04
   0   3  10   32.23    1.01
   0  -3 -10   32.05    1.04
  -1   3  10    5.03    0.27
   1  -3  10    4.71    0.28
  -1  -3 -10    4.85    0.29
   1   3 -10    5.07    0.27
   1  -3  10    4.83    0.31
  -1  -3 -10    4.63    0.24
  -1   3  10    4.75    0.34
  -1   3 -10    4.36    0.23
   1   3  10    4.66    0.22
   1  -3 -10    4.74    0.27
  -1  -3  10    5.19    0.28
  -1  -3  10    4.20    0.26
  -1   3 -10    4.65    0.31
   1   3  10    5.08    0.31
  -2   3  10    9.88    0.39
  -2  -3 -10    9.11    0.38
   2   3 -10    9.60    0.41
   2  -3  10    9.52    0.42
   2   3 -10    8.54    0.38
  -2  -3 -10    9.68    0.42
   2  -3  10    9.38    0.42
  -2   3  10    9.36    0.40
   2   3  10    9.02    0.44
   2  -3 -10    8.51    0.38
   2  -3 -10    9.29    0.46
  -2   3 -10    9.70    0.43
  -2  -3  10    8.92    0.42
  -2  -3  10    8.59    0.38
  -3  -3 -10   18.28    0.66
  -3   3  10   18.93    0.69
  -3  -3 -10   18.76    0.68
   3   3 -10   17.94    0.68
  -3   3  10   18.19    0.66
   3  -3  10   18.88    0.70
   3  -3  10   19.02    0.69
   3  -3 -10   18.72    0.73
  -3  -3  10   16.92    0.69
  -3   3 -10   18.61    0.70
   3   3  10   18.40    0.70
  -3  -3  10   17.73    0.64
  -4   3  10    4.27    0.33
   4   3 -10    4.44    0.35
  -4  -3 -10    4.79    0.35
   4  -3  10    4.90    0.34
  -4  -3 -10    4.66    0.32
   4  -3  10    4.69    0.38
  -4   3  10    4.28    0.35
   4  -3 -10    4.96    0.43
  -4   3 -10    4.73    0.36
  -4  -3  10    3.41    0.37
   4   3  10    4.89    0.38
  -5  -3 -10    9.83    0.48
   5   3 -10    8.96    0.48
  -5   3  10    9.14    0.48
  -5  -3 -10    9.63    0.47
   5  -3  10    8.93    0.52
  -5   3  10    8.78    0.48
   5   3  10    9.41    0.52
  -5  -3  10    8.40    0.49
   5  -3 -10    8.90    0.58
  -5   3 -10    9.14    0.51
  -6   3  10    1.27    0.36
  -6  -3 -10    1.19    0.35
   6  -3  10    0.79    0.39
  -6   3  10    0.86    0.36
   6   3 -10    0.31    0.35
  -6  -3  10    0.62    0.39
   6   3  10    0.71    0.38
   6  -3 -10    0.68    0.46
  -6   3 -10    1.13    0.38
   0   4 -10   -0.06    0.21
   0  -4 -10   -0.24    0.17
   0  -4 -10    0.17    0.13
   0   4 -10    0.00    0.17
   0   4  10    0.19    0.16
   0  -4  10    0.02    0.19
   0  -4  10    0.06    0.15
   0   4  10    0.09    0.22
   1  -4  10   51.73    1.64
  -1   4  10   51.02    1.63
  -1  -4 -10   53.08    1.66
   1   4 -10   52.64    1.64
  -1   4  10   52.27    1.69
  -1  -4 -10   49.68    1.61
   1  -4  10   52.20    1.66
  -1   4 -10   48.58    1.61
  -1  -4  10   52.49    1.64
  -1   4 -10   50.75    1.66
   1  -4 -10   51.23    1.64
   1   4  10   53.96    1.68
   1   4  10   52.52    1.61
   2  -4  10    2.94    0.27
   2   4 -10    2.82    0.28
  -2   4  10    2.98    0.26
   2  -4  10    3.15    0.29
  -2   4  10    3.13    0.24
  -2  -4 -10    2.77    0.28
  -2  -4 -10    3.13    0.22
   2  -4 -10    2.82    0.34
  -2  -4  10    3.35    0.26
   2  -4 -10    2.01    0.24
  -2   4 -10    3.56    0.31
  -2  -4  10    2.68    0.32
   2   4  10    3.22    0.30
  -3  -4 -10   19.64    0.70
  -3  -4 -10   20.22    0.74
   3  -4  10   20.38    0.75
  -3   4  10   20.33    0.71
  -3   4  10   20.45    0.73
   3  -4  10   20.59    0.74
   3   4 -10   19.53    0.74
   3  -4 -10   19.49    0.79
  -3  -4  10   19.09    0.75
  -3  -4  10   19.37    0.70
   3   4  10   20.65    0.76
  -3   4 -10   20.77    0.75
   4   4 -10    1.83    0.30
  -4   4  10    1.53    0.29
  -4  -4 -10    1.96    0.27
   4  -4  10    1.41    0.33
  -4  -4 -10    2.03    0.27
  -4   4  10    1.86    0.28
   4  -4  10    1.70    0.27
  -4  -4  10    1.76    0.33
   4   4  10    1.74    0.31
   4  -4 -10    1.58    0.39
  -4   4 -10    2.37    0.33
  -5  -4 -10    1.42    0.29
   5   4 -10    1.01    0.32
   5  -4  10    2.13    0.39
  -5  -4 -10    1.53    0.30
  -5   4  10    1.85    0.35
   5   4  10    1.60    0.35
   5  -4 -10    1.33    0.44
  -5   4 -10    0.62    0.34
  -5  -4  10    1.71    0.36
   6  -4  10    1.71    0.43
  -6  -4 -10    1.88    0.37
   6   4 -10    1.34    0.36
  -6   4  10    1.72    0.39
  -6   4 -10    1.94    0.41
   6   4  10    1.82    0.41
   6  -4 -10    1.10    0.48
  -6  -4  10    1.58    0.41
   0   5 -10   40.85    1.34
   0   5 -10   40.17    1.29
   0   5  10   41.49    1.29
   0   5  10   40.21    1.35
   0  -5  10   39.50    1.32
   0  -5 -10   40.87    1.32
   1  -5  10    0.74    0.19
  -1   5  10    0.47    0.19
  -1   5  10    0.20    0.25
   1   5 -10   -0.05    0.20
   1  -5  10    0.31    0.21
  -1  -5 -10   -0.07    0.19
  -1   5 -10    0.81    0.26
   1  -5 -10   -0.10    0.19
  -1   5 -10    0.40    0.18
   1   5  10    0.64    0.16
   1   5  10    0.48    0.25
  -1  -5  10   -0.04    0.20
  -2  -5 -10   25.88    0.91
   2  -5  10   26.32    0.90
  -2   5  10   26.21    0.90
   2  -5  10   26.22    0.91
   2   5 -10   26.94    0.91
  -2  -5  10   25.87    0.88
  -2  -5  10   26.01    0.91
  -2   5 -10   27.16    0.92
   2   5  10   25.56    0.91
   2  -5 -10   24.65    0.94
   2  -5 -10   24.77    0.87
  -3  -5 -10    3.95    0.32
   3   5 -10    3.56    0.33
   3  -5  10    3.94    0.34
  -3  -5 -10    3.73    0.27
   3  -5  10    4.05    0.35
  -3   5  10    4.27    0.34
  -3  -5  10    3.82    0.36
  -3   5 -10    4.45    0.37
   3  -5 -10    3.92    0.40
  -3  -5  10    3.78    0.31
   3   5  10    3.99    0.35
  -4  -5 -10    3.45    0.29
  -4  -5 -10    2.72    0.33
   4  -5  10    3.43    0.35
   4  -5  10    3.11    0.38
   4   5 -10    2.74    0.35
  -4   5  10    3.29    0.35
   4  -5 -10    3.11    0.43
  -4   5 -10    3.01    0.36
  -4  -5  10    3.24    0.37
   4   5  10    2.92    0.34
  -5  -5 -10    0.23    0.29
   5  -5  10    0.83    0.37
  -5  -5 -10    0.33    0.28
   5   5 -10    0.74    0.33
  -5   5  10    0.90    0.34
  -5  -5  10    1.46    0.37
   5  -5 -10   -0.08    0.44
   5   5  10    0.35    0.34
  -5   5 -10    0.74    0.35
   6   5 -10    1.22    0.38
  -6  -5 -10    1.35    0.35
  -6   5  10    0.69    0.39
   6  -5  10    1.65    0.45
  -6   5 -10    1.16    0.40
  -6  -5  10    1.04    0.41
   6  -5 -10    0.75    0.52
   6   5  10    1.73    0.41
   0  -6 -10   10.24    0.46
   0   6 -10   10.22    0.47
   0  -6  10    9.30    0.46
   0   6 -10   10.20    0.43
   0   6  10   10.41    0.43
   0   6  10   10.04    0.49
  -1  -6 -10    3.28    0.30
  -1   6  10    3.03    0.34
  -1   6  10    3.54    0.29
   1  -6  10    2.62    0.31
   1   6 -10    3.61    0.30
  -1  -6  10    2.98    0.30
   1  -6 -10    2.66    0.28
  -1   6 -10    3.27    0.26
   1   6  10    3.69    0.26
  -1   6 -10    3.60    0.33
   1   6  10    3.23    0.32
  -2  -6 -10    9.08    0.45
   2  -6  10    9.55    0.43
   2   6 -10    9.28    0.44
   2  -6  10    9.65    0.46
  -2   6  10    9.06    0.44
   2   6  10    9.17    0.47
   2  -6 -10    8.93    0.51
  -2  -6  10    9.05    0.44
   2  -6 -10    9.43    0.42
  -2   6 -10    9.92    0.48
   3  -6  10    0.89    0.27
   3  -6  10    1.06    0.29
  -3  -6 -10    1.07    0.26
  -3   6  10    1.01    0.28
   3   6 -10    0.93    0.29
   3  -6 -10    2.21    0.38
  -3  -6  10    0.83    0.24
  -3   6 -10    1.09    0.31
  -3  -6  10    1.04    0.32
   3   6  10    1.08    0.30
  -4   6  10    7.71    0.46
   4   6 -10    7.35    0.45
   4  -6  10    8.38    0.47
   4  -6  10    8.59    0.46
  -4  -6 -10    7.67    0.45
  -4   6 -10    8.17    0.47
   4  -6 -10    6.86    0.53
   4   6  10    8.15    0.46
  -4  -6  10    7.24    0.47
   5   6 -10    1.07    0.35
  -5  -6 -10    1.36    0.33
   5  -6  10    1.87    0.39
  -5   6  10    1.43    0.38
  -5   6 -10    1.74    0.39
   5   6  10    2.37    0.39
   5  -6 -10    1.24    0.46
  -5  -6  10    2.06    0.40
   0   7 -10   14.69    0.58
   0   7  10   15.78    0.57
   0   7 -10   15.23    0.61
   0   7  10   15.37    0.64
   0  -7 -10   14.52    0.60
   0  -7  10   14.68    0.61
  -1   7  10   16.99    0.70
   1  -7  10   16.91    0.67
  -1  -7 -10   17.00    0.66
  -1   7  10   16.82    0.64
   1   7 -10   16.80    0.65
   1   7  10   17.12    0.60
   1   7  10   15.93    0.67
   1  -7 -10   16.58    0.64
  -1   7 -10   16.65    0.66
  -1   7 -10   16.07    0.61
  -1  -7  10   15.47    0.64
  -2   7  10   17.87    0.68
  -2  -7 -10   18.59    0.71
   2   7 -10   19.14    0.70
   2  -7  10   17.60    0.70
   2  -7 -10   17.55    0.74
   2   7  10   18.45    0.65
   2   7  10   17.59    0.71
   2  -7 -10   18.07    0.68
  -2  -7  10   18.21    0.69
  -2   7 -10   18.41    0.71
   3  -7  10   12.50    0.55
   3   7 -10   11.29    0.55
   3  -7  10   11.91    0.55
  -3   7  10   12.83    0.55
  -3  -7 -10   12.56    0.55
  -3   7 -10   11.94    0.55
   3  -7 -10   11.75    0.59
  -3  -7  10   11.04    0.56
   3   7  10   12.06    0.56
  -3  -7  10   11.93    0.52
  -4   7  10    4.06    0.40
   4  -7  10    4.11    0.40
   4  -7  10    4.97    0.42
   4   7 -10    4.21    0.40
  -4  -7 -10    4.28    0.40
  -4  -7  10    5.04    0.42
  -4   7 -10    4.57    0.42
   4  -7 -10    3.62    0.46
   4   7  10    4.88    0.40
   5   7 -10    9.13    0.53
   5  -7  10    9.94    0.57
  -5   7  10    9.76    0.55
  -5  -7 -10   10.19    0.54
   5   7  10   10.48    0.56
  -5  -7  10    9.14    0.56
   5  -7 -10    9.23    0.64
  -5   7 -10   10.18    0.57
   0  -8  10   37.06    1.29
   0   8  10   38.36    1.32
   0  -8 -10   38.56    1.29
   0   8  10   40.39    1.27
   0   8 -10   38.09    1.27
   0   8 -10   38.12    1.30
  -1   8  10   62.33    2.03
  -1   8  10   64.94    1.99
   1   8 -10   64.12    1.99
   1  -8  10   59.33    2.01
  -1  -8 -10   60.60    2.00
  -1  -8  10   58.37    1.96
  -1   8 -10   60.52    1.93
   1   8  10   65.20    1.94
   1  -8 -10   58.88    1.96
  -1   8 -10   62.90    1.97
   1   8  10   59.52    1.99
  -2  -8 -10    5.11    0.39
   2   8 -10    5.93    0.41
  -2   8  10    6.64    0.40
   2  -8  10    5.72    0.41
   2  -8 -10    5.35    0.39
  -2   8 -10    5.43    0.40
   2   8  10    5.98    0.42
  -2  -8  10    5.71    0.40
   2   8  10    6.58    0.35
   2  -8 -10    5.65    0.45
   3   8 -10   22.50    0.84
  -3  -8 -10   21.82    0.83
  -3   8  10   22.75    0.83
   3  -8  10   21.02    0.83
   3  -8 -10   20.32    0.88
  -3  -8  10   22.48    0.83
  -3  -8  10   22.15    0.85
  -3   8 -10   23.38    0.85
   3   8  10   22.63    0.86
   4  -8  10    7.02    0.47
  -4  -8 -10    6.48    0.45
   4   8 -10    5.94    0.47
  -4   8  10    6.24    0.46
   4  -8 -10    5.00    0.50
   4   8  10    6.18    0.44
  -4  -8  10    5.65    0.47
  -4   8 -10    6.29    0.47
   5   8 -10    5.85    0.47
   5  -8  10    4.22    0.48
  -5  -8 -10    5.20    0.47
  -5   8  10    4.92    0.46
  -5  -8  10    4.91    0.49
   5  -8 -10    4.48    0.56
  -5   8 -10    5.14    0.47
   5   8  10    4.78    0.46
   0   9  10   61.82    1.97
   0   9 -10   61.08    1.94
   0  -9 -10   57.00    1.93
   0   9  10   61.78    1.91
   0   9 -10   59.99    1.91
   0  -9  10   55.94    1.93
  -1   9  10   11.12    0.50
   1  -9  10    9.73    0.52
   1   9 -10   10.89    0.50
  -1  -9 -10    9.71    0.52
  -1   9  10    9.99    0.53
   1   9  10   11.22    0.47
  -1   9 -10   10.67    0.47
   1  -9 -10    8.96    0.50
  -1  -9  10    9.97    0.51
  -1   9 -10    9.59    0.51
   1   9  10    9.94    0.51
   2  -9  10   30.71    1.14
   2   9 -10   33.67    1.14
  -2   9  10   33.46    1.13
  -2  -9 -10   32.91    1.15
  -2   9 -10   32.68    1.14
   2   9  10   34.25    1.10
   2  -9 -10   31.86    1.13
  -2  -9  10   32.25    1.14
   2   9  10   32.48    1.16
   2  -9 -10   32.11    1.18
  -3  -9 -10    4.51    0.43
  -3   9  10    5.28    0.41
   3   9 -10    5.15    0.44
   3  -9  10    4.83    0.43
  -3  -9  10    5.43    0.45
   3   9  10    5.14    0.43
  -3   9 -10    4.77    0.42
  -3  -9  10    5.05    0.43
   3  -9 -10    4.83    0.48
   4  -9  10    7.92    0.50
   4   9 -10    6.48    0.50
  -4  -9 -10    7.08    0.48
  -4   9  10    6.98    0.48
  -4  -9  10    7.23    0.52
   4  -9 -10    6.74    0.56
  -4   9 -10    7.37    0.50
   4   9  10    7.92    0.50
   0  10  10    3.43    0.39
   0 -10 -10    2.83    0.37
   0  10 -10    3.02    0.36
   0  10  10    3.40    0.35
   0  10 -10    2.96    0.37
   0 -10  10    2.47    0.38
   1 -10  10   12.13    0.60
  -1  10  10   13.70    0.58
  -1  10  10   13.02    0.62
  -1 -10 -10   12.35    0.60
   1  10 -10   14.29    0.60
   1  10  10   13.50    0.61
  -1  10 -10   13.40    0.59
  -1  10 -10   13.48    0.57
   1  10  10   13.39    0.56
  -1 -10  10   11.86    0.61
   1 -10 -10   11.75    0.60
  -2 -10 -10    5.60    0.44
  -2  10  10    6.11    0.43
   2 -10  10    5.87    0.46
   2  10 -10    7.25    0.47
  -2  10 -10    6.06    0.44
  -2 -10  10    5.63    0.45
   2  10  10    6.67    0.40
   2 -10 -10    6.12    0.48
   2 -10 -10    5.47    0.43
   2  10  10    7.00    0.46
  -3 -10 -10    3.66    0.42
   3  10 -10    5.22    0.46
   3 -10  10    3.46    0.44
  -3  10  10    3.98    0.41
   3  10  10    4.96    0.44
   3 -10 -10    4.27    0.48
  -3 -10  10    4.04    0.43
  -3  10 -10    4.67    0.42
  -4  10  10    3.62    0.43
   4 -10  10    3.13    0.45
   4  10 -10    4.03    0.48
  -4 -10 -10    3.10    0.42
  -4 -10  10    3.21    0.48
  -4  10 -10    4.00    0.45
   4 -10 -10    2.47    0.50
   4  10  10    3.78    0.43
   0  11  10    1.19    0.37
   0  11  10    1.05    0.30
   0 -11  10    0.13    0.34
   0 -11 -10    0.35    0.32
   0  11 -10    1.14    0.34
   0  11 -10    1.29    0.34
  -1 -11 -10    0.62    0.32
  -1  11  10    1.10    0.38
   1  11 -10    1.37    0.37
   1  11 -10    1.53    0.36
   1 -11  10    1.31    0.34
  -1  11  10    1.26    0.33
  -1 -11  10    0.71    0.34
   1  11  10    1.13    0.36
   1 -11 -10    1.01    0.33
   1  11  10    1.22    0.32
  -1  11 -10    1.53    0.36
  -2 -11 -10   -0.06    0.32
   2 -11  10    0.06    0.33
  -2  11  10    0.18    0.34
   2  11 -10    0.44    0.38
   2  11  10   -0.05    0.35
  -2 -11  10   -0.45    0.35
  -2  11 -10    0.30    0.35
   2 -11 -10    0.18    0.39
   2  11  10    0.28    0.30
   2 -11 -10   -0.36    0.32
  -3  11  10    4.72    0.47
  -3 -11 -10    4.64    0.45
   3  11 -10    5.07    0.48
   3 -11  10    4.70    0.48
   3 -11 -10    4.50    0.52
  -3  11 -10    4.92    0.45
  -3 -11  10    4.54    0.48
   3  11  10    5.30    0.46
   0  12  10    0.71    0.32
   0 -12  10    0.27    0.36
   0  12  10    0.62    0.37
   0  12 -10    0.38    0.33
   0  12 -10    0.24    0.35
   0 -12 -10   -0.06    0.34
   1  12 -10   10.59    0.55
   1 -12  10    8.18    0.57
  -1  12  10   10.63    0.54
   1  12 -10    9.60    0.54
  -1 -12 -10    9.15    0.57
   1 -12 -10   10.86    0.62
  -1  12 -10   11.05    0.56
   1  12  10   11.10    0.62
   1 -12 -10    9.01    0.57
  -1 -12  10    9.65    0.59
   1  12  10   10.65    0.54
  -2  12  10    1.59    0.39
   2  12 -10    2.14    0.42
  -2 -12 -10    1.72    0.37
   2 -12  10    0.93    0.37
  -2  12 -10    1.59    0.38
   2 -12 -10    1.94    0.46
   2  12  10    1.97    0.41
  -2 -12  10    1.30    0.40
   2  12  10    1.62    0.34
   0 -13 -10   13.14    0.70
   0  13 -10   13.99    0.65
   0  13 -10   15.13    0.68
   0  13  10   14.61    0.66
   0  13  10   14.14    0.70
   1 -13  10    1.71    0.42
   1  13 -10    2.41    0.44
  -1  13  10    2.42    0.40
   1  13 -10    2.51    0.42
  -1 -13 -10    2.22    0.41
  -1  13 -10    2.45    0.42
   1  13  10    1.94    0.46
   1 -13 -10    3.45    0.49
   1  13  10    2.05    0.38
  -1 -13  10    2.11    0.43
   1 -13 -10    1.63    0.42
   0   0  11    0.17    0.19
   0   0 -11    0.07    0.19
   0   0  11   -0.08    0.16
   1   0  11    0.40    0.21
  -1   0  11    0.22    0.19
   1   0  11    0.37    0.17
  -1   0 -11    0.83    0.20
  -1   0  11    0.59    0.21
  -1   0  11    0.22    0.16
  -2   0  11    7.96    0.37
   2   0  11    7.81    0.38
   2   0 -11    7.86    0.40
  -2   0  11    8.06    0.38
   2   0  11    7.46    0.38
  -2   0  11    6.89    0.35
  -2   0 -11    8.16    0.38
  -3   0 -11   11.26    0.49
   3   0  11   11.24    0.48
   3   0 -11   11.95    0.53
   3   0  11   11.67    0.51
  -3   0  11   10.91    0.48
  -3   0  11   10.55    0.49
  -4   0  11   29.32    1.02
   4   0 -11   28.85    1.05
   4   0  11   31.22    1.06
   4   0  11   30.84    1.02
  -4   0  11   27.78    1.03
  -4   0 -11   30.29    1.03
  -5   0 -11    0.30    0.30
  -5   0  11    0.49    0.34
   5   0 -11    0.08    0.38
  -5   0 -11    0.00    0.26
  -5   0  11   -0.25    0.31
   5   0  11   -0.28    0.32
   6   0 -11    5.00    0.42
  -6   0 -11    5.71    0.46
   6   0  11    5.67    0.48
  -6   0  11    5.68    0.48
   0   1  11   67.07    2.16
   0   1 -11   67.07    2.14
   0   1 -11   71.33    2.11
   0   1  11   70.27    2.11
   0  -1 -11   66.48    2.13
   0   1  11   66.93    2.14
   0  -1  11   68.59    2.14
   0  -1  11   66.82    2.15
  -1   1  11   14.07    0.51
   1  -1  11   13.14    0.52
  -1  -1 -11   13.04    0.50
  -1   1  11   12.66    0.49
  -1   1  11   13.32    0.53
   1  -1  11   13.84    0.52
  -1  -1  11   12.93    0.51
   1   1  11   13.22    0.51
  -1  -1  11   12.94    0.50
  -1   1 -11   13.37    0.52
   1   1  11   13.86    0.54
  -2   1  11   50.50    1.61
   2   1 -11   50.00    1.63
   2  -1  11   50.04    1.62
  -2  -1 -11   51.26    1.61
  -2   1  11   51.13    1.61
  -2   1  11   51.67    1.61
   2  -1  11   49.67    1.63
   2   1  11   50.35    1.66
  -2  -1  11   50.98    1.65
   2   1  11   50.18    1.65
  -2  -1  11   52.25    1.63
  -2  -1  11   53.55    1.63
   2  -1 -11   49.38    1.67
  -2   1 -11   53.10    1.65
  -3  -1 -11   18.45    0.68
  -3   1  11   18.54    0.69
   3  -1  11   18.54    0.71
   3  -1  11   18.89    0.69
  -3   1  11   18.65    0.68
   3   1 -11   18.22    0.70
   3   1  11   18.64    0.72
   3  -1 -11   18.25    0.72
   3   1  11   18.48    0.68
  -3   1 -11   19.49    0.70
  -3  -1  11   18.05    0.70
  -3  -1  11   18.60    0.69
  -4  -1 -11    9.78    0.45
  -4   1  11    8.52    0.45
   4   1 -11    9.33    0.50
   4  -1  11    9.46    0.44
  -4  -1 -11    9.52    0.45
   4  -1  11    9.31    0.49
  -4   1  11    8.28    0.45
   4  -1 -11    9.20    0.51
   4   1  11    8.93    0.47
  -4   1 -11    8.93    0.46
  -4  -1  11    8.81    0.46
   5   1 -11    7.86    0.46
  -5   1  11    8.68    0.48
   5  -1  11    9.01    0.46
  -5  -1 -11    9.68    0.48
  -5   1  11    8.75    0.48
  -5  -1 -11    8.89    0.48
   5  -1  11    9.12    0.52
  -5  -1  11    7.79    0.49
   5  -1 -11    9.47    0.57
  -5   1 -11    9.12    0.50
   5   1  11    9.00    0.52
  -6   1  11    1.97    0.39
  -6   1  11    2.25    0.41
   6   1 -11    2.10    0.37
  -6  -1 -11    1.65    0.38
   6  -1  11    1.20    0.42
  -6  -1  11    1.74    0.41
   6  -1 -11    1.60    0.48
   6   1  11    1.89    0.42
  -6   1 -11    2.24    0.40
   0   2  11   26.71    0.95
   0  -2  11   27.76    0.92
   0  -2  11   28.01    0.92
   0   2 -11   26.99    0.89
   0  -2 -11   26.48    0.90
   0   2 -11   26.79    0.93
   0   2  11   28.14    0.88
   0   2  11   27.67    0.92
   1  -2  11  146.61    4.54
   1   2 -11  150.58    4.51
  -1  -2 -11  144.92    4.51
  -1   2  11  146.96    4.56
   1  -2  11  142.62    4.53
  -1   2  11  151.39    4.51
  -1  -2  11  147.93    4.56
   1   2  11  154.54    4.52
   1   2  11  146.76    4.59
  -1  -2  11  145.33    4.56
   1   2  11  148.40    4.57
  -1   2 -11  146.45    4.57
   2   2 -11   15.47    0.60
   2  -2  11   16.45    0.61
   2  -2  11   15.58    0.61
  -2   2  11   16.07    0.59
  -2  -2 -11   16.29    0.58
  -2  -2 -11   16.11    0.60
  -2   2  11   16.67    0.59
   2   2 -11   16.01    0.60
   2  -2 -11   14.38    0.57
  -2  -2  11   16.29    0.62
   2   2  11   15.96    0.62
  -2  -2  11   15.54    0.58
  -2   2 -11   16.72    0.61
  -3  -2 -11   43.94    1.39
  -3   2  11   42.76    1.38
  -3  -2 -11   42.28    1.37
  -3   2  11   42.44    1.38
   3   2 -11   42.72    1.39
   3  -2  11   42.67    1.41
   3   2 -11   40.92    1.38
   3  -2  11   42.04    1.39
  -3  -2  11   41.73    1.41
  -3   2 -11   44.30    1.42
   3  -2 -11   41.99    1.44
   3   2  11   43.24    1.43
   4  -2  11    4.64    0.39
  -4   2  11    4.65    0.35
   4  -2  11    5.28    0.36
  -4  -2 -11    4.72    0.35
  -4  -2 -11    4.99    0.35
   4   2 -11    4.72    0.35
  -4   2  11    4.64    0.37
  -4  -2  11    4.76    0.39
   4   2  11    4.85    0.38
  -4   2 -11    5.44    0.38
   4  -2 -11    5.17    0.43
  -5  -2 -11    8.43    0.46
   5   2 -11    8.32    0.46
   5  -2  11    8.45    0.45
   5  -2  11    8.48    0.50
  -5   2  11    8.21    0.47
  -5  -2 -11    9.13    0.46
  -5   2  11    8.08    0.47
  -5  -2  11    7.84    0.49
  -5   2 -11    8.23    0.48
   5   2  11    7.85    0.48
   5  -2 -11    8.87    0.56
   6  -2  11    0.33    0.41
   6   2 -11    0.33    0.35
  -6   2  11   -0.33    0.36
  -6   2  11   -0.18    0.36
  -6  -2 -11    0.69    0.35
  -6  -2  11    0.39    0.40
   6  -2 -11   -0.38    0.44
  -6   2 -11    0.51    0.37
   6   2  11    0.17    0.39
   0  -3 -11  123.84    3.87
   0  -3  11  125.63    3.90
   0  -3  11  127.43    3.89
   0   3  11  129.78    3.87
   0   3 -11  126.85    3.87
   0   3 -11  124.12    3.91
   0   3  11  125.96    3.93
   0  -3 -11  124.99    3.90
   1  -3  11   14.34    0.57
  -1  -3 -11   14.62    0.52
  -1   3  11   14.60    0.60
  -1  -3 -11   14.47    0.56
  -1   3  11   14.82    0.53
   1  -3  11   14.55    0.55
   1   3 -11   14.78    0.54
  -1   3 -11   14.66    0.58
   1  -3 -11   13.64    0.54
   1   3  11   14.63    0.49
  -1  -3  11   13.61    0.54
  -1  -3  11   13.96    0.53
   1   3  11   14.90    0.59
  -2  -3 -11   59.26    1.89
   2   3 -11   60.06    1.88
  -2   3  11   59.78    1.88
  -2  -3 -11   58.79    1.86
   2  -3  11   59.43    1.90
   2  -3  11   58.29    1.89
  -2   3  11   60.36    1.87
   2   3  11   61.40    1.92
  -2  -3  11   61.66    1.88
  -2  -3  11   58.93    1.90
  -2   3 -11   58.16    1.90
   2  -3 -11   56.04    1.87
  -3   3  11    8.79    0.41
  -3  -3 -11    9.43    0.41
  -3   3  11    8.69    0.44
  -3  -3 -11    9.44    0.44
   3  -3  11    9.41    0.44
   3   3 -11    8.91    0.45
   3  -3  11    9.15    0.46
  -3  -3  11    8.21    0.45
   3  -3 -11    9.11    0.50
   3   3  11    8.91    0.46
  -3   3 -11    9.04    0.47
   4  -3  11   12.56    0.54
  -4   3  11   12.73    0.54
  -4  -3 -11   12.81    0.53
   4  -3  11   12.94    0.58
  -4  -3 -11   14.06    0.56
  -4   3  11   12.43    0.55
   4   3 -11   12.18    0.55
  -4   3 -11   13.64    0.57
   4   3  11   11.86    0.56
  -4  -3  11   11.93    0.56
   4  -3 -11   12.16    0.62
  -5   3  11    5.60    0.41
   5  -3  11    5.76    0.46
  -5  -3 -11    5.87    0.41
  -5   3  11    5.02    0.41
   5  -3  11    6.13    0.41
   5   3 -11    5.55    0.41
  -5  -3 -11    6.40    0.40
  -5  -3  11    5.01    0.42
   5   3  11    4.57    0.42
   5  -3 -11    4.90    0.52
  -5   3 -11    5.62    0.44
  -6  -3 -11    3.76    0.40
  -6   3  11    3.33    0.42
   6   3 -11    2.66    0.40
   6  -3  11    3.59    0.46
  -6   3  11    3.95    0.43
   6   3  11    3.23    0.43
   6  -3 -11    2.81    0.51
  -6   3 -11    3.74    0.44
  -6  -3  11    2.66    0.43
   0   4 -11    4.25    0.34
   0   4 -11    4.45    0.27
   0  -4  11    5.02    0.28
   0  -4 -11    4.39    0.30
   0   4  11    4.89    0.26
   0   4  11    5.09    0.35
   0  -4 -11    4.35    0.24
   0  -4  11    4.86    0.32
  -1  -4 -11   19.25    0.66
  -1   4  11   20.16    0.76
   1   4 -11   20.41    0.70
   1  -4  11   19.86    0.73
   1  -4  11   19.64    0.70
  -1   4  11   19.98    0.69
  -1  -4 -11   20.29    0.72
  -1   4 -11   20.38    0.75
  -1  -4  11   19.98    0.72
   1   4  11   20.44    0.76
   1   4  11   20.56    0.67
   1  -4 -11   19.51    0.72
  -2  -4 -11    9.29    0.38
   2   4 -11    9.49    0.43
  -2   4  11    9.00    0.42
  -2   4  11    8.74    0.48
   2  -4  11    9.09    0.44
  -2  -4 -11    9.21    0.43
   2  -4  11    9.11    0.42
  -2   4 -11    9.31    0.46
  -2  -4  11    9.05    0.45
  -2  -4  11    9.05    0.42
   2  -4 -11    8.30    0.41
   2   4  11    9.58    0.45
  -3  -4 -11    7.04    0.39
   3  -4  11    6.72    0.40
  -3   4  11    6.83    0.39
   3  -4  11    7.26    0.40
   3   4 -11    6.69    0.40
  -3  -4 -11    6.78    0.34
   3   4  11    6.87    0.42
  -3  -4  11    6.52    0.36
  -3  -4  11    6.54    0.43
   3  -4 -11    6.52    0.45
  -3   4 -11    7.12    0.43
   4  -4  11   14.33    0.60
   4   4 -11   13.40    0.60
   4  -4  11   13.94    0.62
  -4  -4 -11   14.81    0.57
  -4  -4 -11   14.95    0.60
  -4   4  11   13.88    0.60
  -4  -4  11   12.53    0.60
   4   4  11   13.24    0.60
   4  -4 -11   13.41    0.65
  -4   4 -11   14.48    0.61
  -5  -4 -11    4.92    0.40
  -5  -4 -11    5.83    0.39
   5  -4  11    5.18    0.45
   5  -4  11    5.39    0.40
   5   4 -11    4.20    0.40
  -5   4  11    5.18    0.41
  -5   4 -11    5.18    0.43
   5  -4 -11    4.46    0.52
  -5  -4  11    4.48    0.44
   5   4  11    5.36    0.44
   0   5  11    1.58    0.21
   0   5 -11    1.35    0.22
   0   5 -11    1.38    0.27
   0  -5  11    1.16    0.24
   0  -5 -11    1.17    0.22
   0   5  11    1.48    0.29
  -1   5  11    4.04    0.37
  -1   5  11    4.06    0.28
  -1  -5 -11    4.06    0.31
   1  -5  11    4.01    0.33
   1   5 -11    3.94    0.30
   1   5  11    4.03    0.34
   1  -5 -11    3.49    0.30
  -1   5 -11    3.89    0.33
  -1  -5  11    3.84    0.30
   1   5  11    4.02    0.25
  -2   5  11    1.65    0.26
  -2  -5 -11    1.45    0.25
   2  -5  11    1.34    0.26
   2   5 -11    1.39    0.27
   2  -5  11    1.38    0.25
   2   5  11    1.62    0.31
   2  -5 -11    1.13    0.23
  -2   5 -11    1.40    0.30
  -2  -5  11    1.33    0.24
   3  -5  11    9.80    0.49
   3  -5  11   10.08    0.49
  -3   5  11   10.02    0.48
   3   5 -11   10.38    0.49
  -3  -5 -11   10.47    0.48
   3  -5 -11    9.28    0.53
  -3   5 -11    8.61    0.49
  -3  -5  11   10.35    0.50
   3   5  11    9.87    0.48
  -3  -5  11    9.66    0.44
  -4   5  11    0.88    0.32
   4  -5  11    1.38    0.29
   4   5 -11    0.44    0.30
  -4  -5 -11    0.96    0.28
   4  -5  11    1.37    0.34
  -4  -5  11    1.56    0.35
  -4   5 -11    1.31    0.34
   4  -5 -11    1.55    0.42
   4   5  11    1.56    0.33
  -5  -5 -11    6.42    0.45
   5   5 -11    5.14    0.43
  -5   5  11    5.20    0.44
   5  -5  11    6.25    0.48
  -5  -5  11    5.15    0.46
   5  -5 -11    5.63    0.54
  -5   5 -11    5.99    0.47
   5   5  11    5.86    0.45
   0   6 -11   16.73    0.67
   0   6  11   17.83    0.69
   0   6  11   17.45    0.62
   0  -6 -11   17.16    0.66
   0  -6  11   16.57    0.66
   0   6 -11   17.24    0.63
  -1   6  11   17.25    0.69
  -1  -6 -11   17.61    0.65
   1  -6  11   15.29    0.65
  -1   6  11   17.01    0.63
   1   6 -11   16.85    0.63
   1   6  11   16.78    0.67
  -1  -6  11   15.49    0.63
   1   6  11   17.30    0.59
  -1   6 -11   16.08    0.66
   1  -6 -11   16.40    0.63
   2   6 -11    5.07    0.35
  -2   6  11    4.64    0.33
   2  -6  11    3.99    0.35
  -2  -6 -11    3.76    0.34
   2  -6 -11    4.21    0.41
   2   6  11    4.09    0.36
  -2  -6  11    4.22    0.34
   2  -6 -11    3.22    0.31
  -2   6 -11    3.70    0.37
   3  -6  11    3.76    0.36
   3   6 -11    3.61    0.36
   3  -6  11    3.01    0.34
  -3  -6 -11    3.39    0.34
  -3   6  11    3.37    0.33
  -3  -6  11    3.63    0.37
   3  -6 -11    3.00    0.41
  -3   6 -11    3.30    0.37
   3   6  11    3.21    0.34
  -3  -6  11    3.68    0.33
   4  -6  11    1.62    0.32
   4   6 -11    1.92    0.36
  -4   6  11    2.30    0.35
  -4  -6 -11    2.35    0.35
   4  -6  11    2.16    0.36
   4   6  11    2.26    0.36
  -4  -6  11    1.41    0.37
   4  -6 -11    1.77    0.44
  -4   6 -11    2.41    0.38
  -5   6  11   -0.09    0.35
   5  -6  11    0.42    0.38
  -5  -6 -11   -0.18    0.31
   5   6 -11   -0.06    0.35
   5   6  11    0.08    0.35
  -5  -6  11    0.11    0.37
   5  -6 -11   -0.08    0.45
  -5   6 -11    0.16    0.36
   0  -7  11   20.26    0.79
   0   7 -11   20.26    0.75
   0  -7 -11   22.28    0.79
   0   7  11   22.38    0.76
   0   7  11   21.61    0.83
   0   7 -11   20.33    0.79
  -1   7  11    6.90    0.39
  -1   7  11    7.17    0.46
   1  -7  11    6.51    0.42
   1   7 -11    7.28    0.40
  -1  -7 -11    6.99    0.41
   1   7  11    7.22    0.36
   1   7  11    6.96    0.42
  -1  -7  11    5.73    0.40
   1  -7 -11    6.73    0.40
  -1   7 -11    6.49    0.43
  -2   7  11   21.26    0.78
  -2  -7 -11   21.23    0.80
   2   7 -11   22.13    0.79
   2  -7  11   20.40    0.80
  -2   7 -11   22.42    0.82
  -2  -7  11   21.63    0.79
   2  -7 -11   20.65    0.79
   2   7  11   21.32    0.82
   2  -7 -11   20.86    0.84
   3  -7  11    0.14    0.29
   3   7 -11    0.74    0.32
  -3   7  11    0.14    0.29
  -3  -7 -11   -0.01    0.27
  -3   7 -11    0.16    0.31
  -3  -7  11    0.23    0.26
   3  -7 -11    0.23    0.35
   3   7  11    0.21    0.31
  -3  -7  11    0.40    0.34
   4  -7  11    2.24    0.35
   4   7 -11    2.70    0.37
  -4   7  11    2.78    0.37
   4  -7  11    2.86    0.40
  -4  -7 -11    2.60    0.38
  -4  -7  11    2.04    0.40
  -4   7 -11    2.91    0.41
   4  -7 -11    2.63    0.47
   4   7  11    2.63    0.37
   5   7 -11    2.42    0.41
  -5  -7 -11    2.00    0.36
  -5   7  11    2.22    0.42
   5  -7  11    2.53    0.44
  -5  -7  11    2.45    0.45
   5  -7 -11    2.13    0.51
  -5   7 -11    2.11    0.41
   5   7  11    2.07    0.41
   0  -8 -11    0.64    0.27
   0   8 -11    0.81    0.28
   0   8  11    0.31    0.29
   0   8  11    0.56    0.25
   0  -8  11    0.19    0.28
   0   8 -11    0.79    0.30
   1  -8  11   17.33    0.74
   1   8 -11   19.30    0.73
  -1   8  11   19.99    0.72
  -1  -8 -11   18.70    0.74
  -1   8  11   19.84    0.78
   1   8  11   18.49    0.76
   1   8  11   19.95    0.70
  -1  -8  11   17.79    0.74
  -1   8 -11   19.34    0.75
   1  -8 -11   19.41    0.75
  -2   8  11    0.55    0.29
  -2  -8 -11    0.29    0.27
   2  -8  11    0.35    0.29
   2   8 -11    0.32    0.31
  -2   8 -11    0.10    0.31
   2   8  11    0.53    0.32
  -2  -8  11   -0.04    0.27
   2  -8 -11    0.47    0.35
   2  -8 -11   -0.17    0.25
   3  -8  11    6.74    0.47
  -3   8  11    7.70    0.45
   3   8 -11    7.08    0.47
  -3  -8 -11    7.32    0.46
  -3  -8  11    7.03    0.49
   3  -8 -11    6.37    0.50
  -3   8 -11    7.78    0.46
  -3  -8  11    7.06    0.45
   3   8  11    7.91    0.47
  -4  -8 -11    4.40    0.42
   4   8 -11    4.39    0.43
  -4   8  11    4.39    0.41
   4  -8  11    4.43    0.44
  -4  -8  11    3.67    0.45
  -4   8 -11    4.03    0.43
   4  -8 -11    4.71    0.52
   4   8  11    4.47    0.42
   0  -9  11    2.75    0.37
   0   9 -11    3.13    0.34
   0  -9 -11    1.81    0.31
   0   9  11    2.51    0.33
   0   9  11    3.42    0.40
   0   9 -11    3.23    0.37
  -1   9  11    1.38    0.35
   1   9 -11    1.52    0.32
  -1  -9 -11    1.18    0.31
  -1   9  11    1.65    0.31
   1  -9  11    1.08    0.31
   1  -9 -11    1.00    0.30
   1   9  11    1.34    0.34
  -1   9 -11    1.01    0.34
  -1  -9  11    1.31    0.31
   1   9  11    1.11    0.28
   2   9 -11    5.69    0.45
  -2  -9 -11    6.38    0.45
  -2   9  11    6.67    0.43
   2  -9  11    6.65    0.46
   2   9  11    6.63    0.45
  -2  -9  11    5.98    0.45
  -2   9 -11    6.40    0.44
   2  -9 -11    6.32    0.48
   2  -9 -11    5.99    0.44
   3  -9  11    5.54    0.46
  -3  -9 -11    5.30    0.44
  -3   9  11    5.53    0.42
   3   9 -11    5.25    0.46
   3  -9 -11    4.79    0.49
  -3  -9  11    5.10    0.42
   3   9  11    5.82    0.45
  -3   9 -11    5.32    0.44
  -4  -9 -11    0.93    0.36
  -4   9  11    1.69    0.39
   4   9 -11    1.44    0.42
   4  -9  11    1.34    0.36
   4   9  11    1.82    0.41
  -4  -9  11    1.65    0.43
   4  -9 -11    1.02    0.48
  -4   9 -11    1.84    0.41
   0  10 -11    0.18    0.33
   0 -10  11    0.32    0.30
   0  10 -11    0.25    0.31
   0  10  11    0.40    0.36
   0 -10 -11    0.21    0.29
   0  10  11    0.28    0.27
   1  10 -11    0.13    0.33
  -1  10  11   -0.38    0.29
   1 -10  11    0.19    0.31
  -1 -10 -11    0.07    0.29
  -1  10  11   -0.35    0.33
  -1  10 -11   -0.03    0.33
   1  10  11    0.03    0.29
  -1 -10  11    0.12    0.32
   1  10  11    0.33    0.34
  -2  10  11    4.33    0.40
   2 -10  11    3.50    0.43
  -2 -10 -11    4.08    0.41
   2  10 -11    4.24    0.44
  -2  10 -11    4.11    0.41
  -2 -10  11    2.77    0.42
   2  10  11    4.25    0.41
   2 -10 -11    3.44    0.45
   2 -10 -11    3.78    0.40
   3  10 -11    0.47    0.39
  -3  10  11    0.25    0.34
   3 -10  11   -0.28    0.33
  -3 -10 -11    0.46    0.32
  -3 -10  11    0.15    0.34
  -3  10 -11    1.00    0.36
   3  10  11    0.35    0.37
   3 -10 -11    0.44    0.42
  -4  10  11    1.62    0.40
   4 -10  11    0.93    0.38
  -4 -10 -11    1.11    0.36
   4  10 -11    1.04    0.44
   4  10  11    1.48    0.41
  -4  10 -11    0.65    0.41
  -4 -10  11    1.45    0.46
   4 -10 -11    0.77    0.50
   0  11  11    3.66    0.40
   0 -11  11    1.98    0.37
   0  11 -11    3.90    0.40
   0  11  11    3.42    0.44
   0  11 -11    3.17    0.40
   0 -11 -11    3.54    0.41
   1 -11  11    0.55    0.34
  -1  11  11    0.86    0.38
  -1  11  11    0.29    0.32
  -1 -11 -11    0.58    0.33
   1  11 -11    0.71    0.35
   1  11 -11    1.44    0.37
   1  11  11    0.82    0.32
   1  11  11    1.09    0.38
   1 -11 -11    0.73    0.34
  -1  11 -11    0.98    0.36
  -1 -11  11    0.92    0.36
  -2 -11 -11    0.91    0.32
  -2  11  11    1.65    0.38
   2  11 -11    1.90    0.42
   2 -11  11    1.27    0.37
   2 -11 -11    2.05    0.44
  -2  11 -11    1.42    0.37
   2  11  11    1.50    0.39
  -2 -11  11    0.89    0.37
   3  11 -11    0.31    0.40
   3 -11  11    0.23    0.36
  -3 -11 -11   -0.15    0.33
  -3  11  11    0.24    0.37
  -3 -11  11   -0.20    0.37
  -3  11 -11   -0.65    0.36
   3 -11 -11    0.03    0.43
   3  11  11    0.80    0.38
   0  12 -11    0.01    0.36
   0 -12 -11   -0.54    0.34
   0  12 -11    0.05    0.34
   0  12  11    0.03    0.40
   0 -12  11    0.01    0.36
   0  12  11   -0.42    0.31
   1  12 -11    3.90    0.46
   1  12 -11    3.71    0.45
   1 -12  11    3.99    0.46
  -1 -12 -11    4.13    0.47
  -1  12  11    4.93    0.44
   1  12  11    3.66    0.41
   1  12  11    4.27    0.50
  -1 -12  11    2.89    0.44
   1 -12 -11    3.78    0.46
  -1  12 -11    4.26    0.44
   2  12 -11    0.86    0.42
   2 -12  11    0.52    0.38
  -2 -12 -11    0.24    0.36
  -2  12  11    0.81    0.39
   2  12  11    1.04    0.39
  -2 -12  11    0.68    0.39
  -2  12 -11    0.32    0.37
   2 -12 -11    0.83    0.44
   0  13  11    1.35    0.43
   0 -13  11    1.62    0.42
   0  13 -11    2.07    0.39
   0 -13 -11    1.68    0.41
   0  13  11    1.02    0.36
   0  13 -11    2.25    0.44
   0   0  12    1.32    0.20
   0   0  12    1.65    0.25
   0   0 -12    1.80    0.24
   0   0  12    1.20    0.21
  -1   0  12   67.30    1.99
  -1   0  12   62.81    2.00
  -1   0  12   59.71    2.02
   1   0  12   63.85    2.01
  -1   0 -12   62.64    2.01
   1   0  12   64.48    2.03
  -2   0  12    3.93    0.29
   2   0  12    3.90    0.32
   2   0 -12    3.84    0.35
  -2   0  12    4.54    0.31
  -2   0 -12    4.65    0.31
  -2   0  12    4.38    0.34
   2   0  12    3.98    0.31
  -3   0  12    2.79    0.32
  -3   0  12    2.76    0.31
   3   0 -12    3.34    0.36
   3   0  12    2.88    0.30
   3   0  12    3.06    0.33
  -3   0 -12    3.25    0.32
   4   0  12    2.69    0.35
  -4   0 -12    2.34    0.33
  -4   0  12    2.56    0.34
  -4   0  12    2.46    0.34
   4   0 -12    2.21    0.37
   4   0  12    2.60    0.30
  -5   0  12    2.26    0.37
  -5   0 -12    2.67    0.38
   5   0  12    2.59    0.38
  -5   0  12    2.08    0.38
  -5   0 -12    2.45    0.34
   6   0 -12    2.18    0.38
   6   0  12    2.33    0.44
  -6   0  12    2.60    0.45
  -6   0 -12    2.84    0.42
   0   1  12   33.54    1.00
   0   1  12   31.07    1.04
   0   1 -12   32.56    1.00
   0  -1  12   30.67    1.05
   0  -1  12   30.37    1.04
   0   1  12   29.57    1.06
   0  -1 -12   30.04    1.03
   0   1 -12   30.84    1.05
  -1   1  12    4.24    0.28
   1  -1  12    4.64    0.31
  -1  -1 -12    5.06    0.30
  -1   1  12    4.40    0.33
  -1   1  12    3.98    0.29
   1  -1  12    4.49    0.31
  -1  -1  12    4.26    0.30
  -1   1 -12    4.84    0.33
  -1  -1  12    4.91    0.32
   1   1  12    5.16    0.34
   1   1  12    5.17    0.31
  -2   1  12   29.87    1.00
   2  -1  12   28.47    1.00
   2  -1  12   29.30    1.01
  -2   1  12   30.84    0.99
  -2   1  12   29.99    0.98
   2   1 -12   28.02    1.01
  -2  -1 -12   29.50    0.99
  -2  -1  12   30.34    1.01
   2   1  12   29.79    1.02
  -2  -1  12   29.95    1.03
   2   1  12   30.79    1.05
  -2   1 -12   30.35    1.03
  -3   1  12    3.95    0.34
   3  -1  12    4.84    0.36
   3  -1  12    4.67    0.33
  -3  -1 -12    4.88    0.34
  -3   1  12    4.36    0.34
   3   1 -12    4.80    0.37
  -3  -1  12    4.80    0.36
   3   1  12    4.68    0.33
   3  -1 -12    4.76    0.40
  -3   1 -12    5.14    0.37
   3   1  12    4.68    0.36
   4   1 -12    7.59    0.42
   4  -1  12    7.94    0.42
  -4   1  12    7.30    0.43
  -4  -1 -12    8.00    0.42
   4  -1  12    8.11    0.47
  -4  -1 -12    8.05    0.43
  -4   1  12    7.79    0.43
   4   1  12    7.50    0.45
  -4  -1  12    7.17    0.45
   4  -1 -12    8.77    0.51
  -4   1 -12    8.11    0.44
  -5  -1 -12    4.21    0.38
   5  -1  12    3.69    0.42
  -5  -1 -12    4.37    0.38
  -5   1  12    3.91    0.40
   5  -1  12    3.89    0.36
  -5   1  12    3.35    0.39
   5   1 -12    3.77    0.38
   5   1  12    3.71    0.41
  -5   1 -12    4.21    0.39
  -5  -1  12    3.21    0.40
   5  -1 -12    4.28    0.49
  -6   1  12    1.45    0.40
   6  -1  12    1.82    0.40
  -6   1  12    1.45    0.41
  -6  -1 -12    1.33    0.38
   6   1 -12    1.69    0.38
  -6  -1  12    1.61    0.41
   6   1  12    1.98    0.43
  -6   1 -12    1.39    0.40
   0  -2  12    8.40    0.39
   0   2  12    8.49    0.34
   0  -2  12    7.54    0.39
   0   2  12    8.34    0.42
   0   2 -12    7.61    0.34
   0   2  12    8.33    0.38
   0   2 -12    8.88    0.41
   0  -2 -12    7.88    0.37
  -1   2  12    9.78    0.48
   1   2 -12   10.43    0.43
  -1   2  12   10.69    0.42
   1  -2  12   10.33    0.45
  -1  -2 -12   10.04    0.42
   1  -2  12    9.73    0.45
   1   2  12   10.71    0.48
  -1  -2  12   10.44    0.45
   1   2  12   10.32    0.45
  -1   2 -12   10.72    0.48
  -1  -2  12   10.14    0.45
  -2   2  12    8.91    0.41
  -2  -2 -12    9.59    0.40
   2  -2  12    8.67    0.43
   2  -2  12    8.77    0.43
   2   2 -12    8.60    0.42
  -2   2  12    8.36    0.47
  -2  -2 -12    9.42    0.42
   2   2 -12    8.63    0.41
   2  -2 -12    8.37    0.40
  -2  -2  12    9.02    0.41
   2   2  12    9.11    0.44
  -2   2 -12    8.90    0.44
  -3   2  12   11.63    0.51
   3   2 -12   11.16    0.51
  -3   2  12   11.60    0.50
  -3  -2 -12   11.52    0.49
   3  -2  12   11.94    0.51
  -3  -2 -12   12.00    0.51
   3  -2  12   11.90    0.53
  -3   2 -12   11.65    0.53
   3  -2 -12   11.75    0.56
  -3  -2  12   11.17    0.53
   3   2  12   11.79    0.53
   4  -2  12    5.30    0.40
  -4  -2 -12    5.10    0.37
  -4  -2 -12    5.04    0.36
  -4   2  12    4.30    0.37
   4   2 -12    4.91    0.37
   4  -2  12    5.24    0.38
  -4   2  12    4.45    0.37
   4   2  12    4.93    0.39
  -4   2 -12    4.59    0.38
   4  -2 -12    4.67    0.44
  -4  -2  12    4.63    0.40
  -5  -2 -12    9.04    0.48
  -5   2  12    7.99    0.49
   5  -2  12    9.11    0.54
  -5  -2 -12    9.45    0.48
  -5   2  12    9.25    0.49
   5  -2  12    9.15    0.48
   5   2 -12    8.44    0.48
   5  -2 -12    9.14    0.61
  -5   2 -12    8.94    0.51
  -5  -2  12    8.17    0.51
   5   2  12    8.10    0.50
   0   3  12    2.57    0.32
   0   3  12    2.80    0.22
   0  -3 -12    2.51    0.27
   0   3 -12    2.22    0.29
   0  -3 -12    2.54    0.23
   0   3 -12    2.44    0.23
   0  -3  12    2.25    0.28
  -1   3  12   23.12    0.77
  -1  -3 -12   21.97    0.76
  -1   3  12   21.62    0.83
  -1  -3 -12   22.61    0.80
   1  -3  12   22.53    0.79
   1   3 -12   22.82    0.77
   1  -3  12   22.68    0.80
  -1   3 -12   24.06    0.82
   1   3  12   21.93    0.82
  -1  -3  12   22.23    0.79
   1  -3 -12   21.79    0.78
  -2  -3 -12   11.23    0.45
   2  -3  12   11.56    0.49
  -2  -3 -12   12.12    0.50
  -2   3  12   11.74    0.48
  -2   3  12   11.12    0.55
   2   3 -12   11.33    0.49
   2  -3  12   11.19    0.50
  -2   3 -12   11.53    0.52
   2   3  12   11.39    0.52
  -2  -3  12   12.14    0.49
   2  -3 -12   10.85    0.47
  -3  -3 -12    3.57    0.32
  -3   3  12    3.38    0.30
  -3  -3 -12    3.14    0.29
   3   3 -12    2.90    0.32
   3  -3  12    3.58    0.34
   3  -3  12    3.55    0.33
  -3   3  12    3.33    0.32
  -3   3 -12    3.69    0.35
   3   3  12    3.72    0.34
   3  -3 -12    3.69    0.40
  -3  -3  12    3.26    0.36
   4  -3  12    9.39    0.51
  -4  -3 -12    9.28    0.46
  -4   3  12    9.53    0.48
   4   3 -12    8.57    0.48
  -4  -3 -12    9.42    0.44
  -4   3  12    8.99    0.46
   4  -3  12    9.07    0.47
  -4  -3  12    8.48    0.50
  -4   3 -12    9.35    0.50
   4  -3 -12    8.60    0.54
   4   3  12    8.75    0.48
   5  -3  12    4.47    0.44
  -5   3  12    3.76    0.39
   5   3 -12    3.09    0.39
   5  -3  12    4.27    0.39
  -5  -3 -12    4.39    0.38
  -5  -3 -12    4.03    0.38
   5  -3 -12    3.95    0.51
   5   3  12    4.06    0.41
  -5   3 -12    3.77    0.42
  -5  -3  12    3.96    0.43
   0   4 -12   28.94    1.02
   0   4  12   30.53    1.04
   0  -4 -12   30.35    1.01
   0   4 -12   29.27    0.97
   0  -4  12   29.09    1.01
   0   4  12   29.62    0.97
  -1   4  12   25.50    0.93
  -1  -4 -12   26.16    0.89
   1  -4  12   24.55    0.90
   1   4 -12   26.86    0.88
   1  -4  12   25.35    0.88
  -1   4  12   25.42    0.87
   1  -4 -12   25.27    0.89
  -1   4 -12   25.82    0.92
  -1  -4  12   26.55    0.90
   1   4  12   26.11    0.94
   2  -4  12   11.50    0.49
  -2  -4 -12   11.18    0.44
  -2   4  12   10.85    0.55
   2  -4  12   10.86    0.50
  -2  -4 -12   11.15    0.49
   2   4 -12   11.04    0.49
  -2   4  12   11.01    0.47
  -2  -4  12   11.38    0.48
  -2   4 -12   11.44    0.52
   2   4  12   11.54    0.53
   2  -4 -12    9.90    0.47
  -3   4  12    7.97    0.44
   3  -4  12    8.37    0.45
  -3  -4 -12    8.85    0.39
  -3  -4 -12    8.76    0.44
   3  -4  12    8.17    0.45
   3   4 -12    8.08    0.43
  -3  -4  12    7.94    0.46
   3   4  12    8.28    0.45
   3  -4 -12    8.27    0.49
  -3   4 -12    7.77    0.46
   4  -4  12    1.33    0.34
  -4  -4 -12    1.56    0.28
   4  -4  12    1.42    0.28
  -4  -4 -12    0.71    0.27
   4   4 -12    0.65    0.31
  -4   4  12    0.98    0.32
  -4  -4  12    0.55    0.34
  -4   4 -12    1.24    0.35
   4   4  12    1.01    0.32
   4  -4 -12    1.28    0.40
   5   4 -12    1.64    0.37
   5  -4  12    3.21    0.37
  -5   4  12    2.77    0.39
  -5  -4 -12    2.83    0.35
   5  -4  12    3.53    0.43
  -5  -4 -12    2.51    0.37
   5   4  12    3.07    0.38
  -5   4 -12    2.92    0.40
   5  -4 -12    2.11    0.49
  -5  -4  12    2.42    0.41
   0   5  12   38.07    1.20
   0   5 -12   37.05    1.25
   0   5 -12   36.06    1.20
   0  -5 -12   38.09    1.24
   0   5  12   36.42    1.27
   0  -5  12   36.37    1.24
  -1   5  12    8.63    0.40
  -1  -5 -12    7.99    0.43
   1  -5  12    8.47    0.44
  -1   5  12    9.10    0.48
   1   5 -12    8.74    0.41
  -1   5 -12    9.10    0.47
   1   5  12    9.17    0.47
  -1  -5  12    8.67    0.43
   1  -5 -12    8.21    0.43
   1   5  12    9.21    0.37
  -2   5  12   17.99    0.68
   2  -5  12   18.26    0.71
  -2  -5 -12   18.99    0.70
   2   5 -12   18.95    0.70
  -2   5  12   18.08    0.76
   2  -5  12   17.44    0.68
  -2  -5  12   18.31    0.70
  -2   5 -12   18.08    0.73
   2   5  12   19.46    0.75
   2  -5 -12   19.10    0.70
   3  -5  12    0.66    0.27
  -3   5  12    0.99    0.29
  -3  -5 -12    0.73    0.25
   3   5 -12    0.87    0.30
   3  -5  12    0.94    0.29
   3  -5 -12    0.74    0.36
  -3  -5  12    1.32    0.34
  -3   5 -12    0.66    0.31
   3   5  12    0.76    0.30
   4  -5  12    3.80    0.38
   4   5 -12    3.35    0.38
   4  -5  12    3.76    0.40
  -4   5  12    3.35    0.38
  -4  -5 -12    4.01    0.37
  -4   5 -12    3.56    0.41
   4   5  12    3.85    0.39
  -4  -5  12    3.38    0.40
   4  -5 -12    3.31    0.48
   5  -5  12    0.84    0.39
  -5  -5 -12    0.25    0.30
   5  -5  12    0.09    0.29
   5   5 -12    0.17    0.35
  -5   5  12    0.14    0.35
   5  -5 -12    0.42    0.46
   5   5  12    0.25    0.34
  -5   5 -12   -0.03    0.36
  -5  -5  12    0.98    0.40
   0   6  12    0.94    0.23
   0  -6  12    0.40    0.26
   0   6 -12    1.28    0.25
   0   6 -12    1.51    0.30
   0  -6 -12    0.93    0.25
   0   6  12    0.89    0.30
  -1   6  12   16.35    0.71
  -1   6  12   17.23    0.63
  -1  -6 -12   16.50    0.66
   1   6 -12   17.88    0.64
   1  -6  12   15.79    0.66
   1   6  12   17.85    0.63
   1   6  12   17.76    0.72
  -1  -6  12   16.41    0.67
  -1   6 -12   17.43    0.70
   1  -6 -12   17.76    0.68
  -2   6  12    9.18    0.44
   2  -6  12    8.67    0.47
  -2  -6 -12    9.09    0.46
   2   6 -12    9.29    0.46
   2  -6 -12    8.64    0.45
  -2  -6  12    9.05    0.45
  -2   6 -12    9.16    0.49
   2   6  12    9.57    0.50
  -3   6  12    5.14    0.39
  -3  -6 -12    4.76    0.38
   3   6 -12    4.98    0.40
   3  -6  12    5.32    0.40
  -3  -6  12    5.50    0.43
   3   6  12    5.29    0.41
  -3   6 -12    5.33    0.42
   3  -6 -12    5.07    0.46
  -3  -6  12    5.12    0.37
   4  -6  12    6.16    0.45
  -4   6  12    5.52    0.43
   4  -6  12    5.47    0.44
   4   6 -12    5.60    0.44
  -4  -6 -12    5.96    0.43
  -4   6 -12    6.05    0.46
  -4  -6  12    5.18    0.46
   4   6  12    5.58    0.44
   4  -6 -12    5.00    0.52
   5   6 -12    3.45    0.44
  -5  -6 -12    3.61    0.42
   5  -6  12    3.34    0.44
  -5   6  12    3.15    0.43
   5   6  12    3.42    0.41
  -5  -6  12    4.37    0.47
   5  -6 -12    3.36    0.54
  -5   6 -12    4.35    0.46
   0   7  12    0.49    0.30
   0   7  12    0.23    0.24
   0   7 -12    0.23    0.25
   0  -7  12    0.05    0.26
   0   7 -12    0.04    0.29
   0  -7 -12    0.15    0.25
  -1  -7 -12   29.66    1.06
   1  -7  12   28.44    1.06
   1   7 -12   31.75    1.04
  -1   7  12   30.82    1.03
  -1   7  12   30.85    1.10
   1   7  12   30.19    1.08
   1  -7 -12   30.43    1.05
  -1   7 -12   29.45    1.06
   1   7  12   31.65    1.00
  -1  -7  12   28.15    1.04
  -2   7  12    4.05    0.34
   2   7 -12    4.02    0.37
  -2  -7 -12    3.77    0.37
   2  -7  12    3.26    0.37
  -2  -7  12    3.34    0.36
  -2   7 -12    4.48    0.38
   2   7  12    4.49    0.39
   2  -7 -12    4.04    0.43
   2  -7 -12    3.34    0.35
   3   7 -12   21.38    0.81
  -3  -7 -12   20.97    0.81
   3  -7  12   20.51    0.81
  -3   7  12   21.19    0.80
  -3  -7  12   19.63    0.83
   3   7  12   22.29    0.84
  -3   7 -12   21.09    0.82
   3  -7 -12   20.60    0.86
  -3  -7  12   21.21    0.79
   4   7 -12    3.54    0.41
   4  -7  12    3.17    0.41
  -4  -7 -12    3.63    0.40
  -4   7  12    3.47    0.41
  -4  -7  12    3.12    0.44
   4  -7 -12    3.74    0.51
   4   7  12    3.88    0.39
  -4   7 -12    4.22    0.44
   5  -7  12    4.62    0.48
  -5   7  12    3.82    0.46
  -5  -7 -12    4.62    0.46
   5   7 -12    4.04    0.45
   5   7  12    6.03    0.48
   5  -7 -12    3.97    0.56
  -5   7 -12    4.25    0.47
  -5  -7  12    4.31    0.48
   0   8  12   50.45    1.55
   0  -8  12   45.22    1.57
   0   8 -12   46.41    1.58
   0   8 -12   49.18    1.55
   0   8  12   47.26    1.61
   0  -8 -12   46.30    1.57
   1   8 -12    4.59    0.39
  -1   8  12    4.61    0.36
  -1  -8 -12    5.02    0.40
   1  -8  12    4.83    0.40
  -1   8  12    4.90    0.42
   1  -8 -12    4.19    0.39
   1   8  12    4.66    0.40
  -1   8 -12    4.45    0.41
  -1  -8  12    4.85    0.40
   1   8  12    5.14    0.35
   2  -8  12   36.31    1.30
   2   8 -12   39.99    1.29
  -2  -8 -12   36.84    1.30
  -2   8  12   38.36    1.28
   2   8  12   37.14    1.28
   2  -8 -12   36.25    1.24
  -2   8 -12   36.40    1.26
  -2  -8  12   36.79    1.24
   2  -8 -12   34.58    1.28
   3  -8  12    2.32    0.35
  -3   8  12    2.64    0.37
  -3  -8 -12    1.83    0.34
   3   8 -12    2.37    0.39
  -3   8 -12    2.54    0.38
   3  -8 -12    2.78    0.44
   3   8  12    2.70    0.37
  -3  -8  12    2.59    0.38
  -4   8  12   12.18    0.60
   4  -8  12   11.22    0.61
   4   8 -12   11.50    0.61
  -4  -8 -12   12.03    0.60
   4   8  12   11.76    0.60
   4  -8 -12   10.02    0.66
  -4  -8  12   10.74    0.62
  -4   8 -12   11.87    0.61
   0   9 -12    7.00    0.42
   0   9  12    6.86    0.48
   0  -9  12    6.10    0.45
   0  -9 -12    6.03    0.45
   0   9  12    7.30    0.41
   0   9 -12    6.41    0.45
  -1  -9 -12   33.62    1.19
   1  -9  12   31.16    1.18
  -1   9  12   35.99    1.16
   1   9 -12   36.10    1.18
  -1   9  12   32.43    1.21
   1   9  12   34.02    1.23
   1  -9 -12   32.63    1.20
   1   9  12   37.93    1.17
  -1  -9  12   32.71    1.20
  -1   9 -12   34.42    1.20
  -2   9  12    4.28    0.39
   2  -9  12    4.61    0.42
  -2  -9 -12    3.88    0.41
   2   9 -12    5.10    0.44
   2  -9 -12    4.38    0.42
   2   9  12    5.13    0.43
  -2   9 -12    4.22    0.41
   2  -9 -12    4.78    0.47
  -2  -9  12    4.70    0.42
  -3  -9 -12    9.99    0.56
   3  -9  12    9.52    0.57
  -3   9  12   10.60    0.55
   3   9 -12   11.26    0.58
   3  -9 -12    8.48    0.59
  -3   9 -12    9.92    0.55
  -3  -9  12    9.46    0.53
   3   9  12   10.64    0.57
  -4   9  12    0.19    0.37
   4   9 -12    0.67    0.41
  -4  -9 -12    0.35    0.36
   4  -9  12    0.76    0.37
  -4  -9  12    1.32    0.45
   4  -9 -12   -0.22    0.47
   4   9  12    0.52    0.39
  -4   9 -12    0.72    0.41
   0  10  12    7.23    0.52
   0 -10 -12    7.01    0.48
   0 -10  12    6.12    0.47
   0  10  12    8.01    0.44
   0  10 -12    6.81    0.44
   0  10 -12    6.80    0.47
   1  10 -12    3.74    0.40
  -1 -10 -12    1.87    0.34
  -1  10  12    2.81    0.38
   1  10 -12    3.23    0.41
  -1  10  12    3.06    0.42
   1 -10  12    2.71    0.40
   1 -10 -12    2.93    0.41
  -1  10 -12    3.73    0.40
   1  10  12    3.54    0.36
   1  10  12    2.57    0.39
  -1 -10  12    3.62    0.41
  -2 -10 -12    3.88    0.42
  -2  10  12    5.54    0.44
   2  10 -12    5.83    0.47
   2 -10  12    4.48    0.44
   2  10  12    4.37    0.43
   2 -10 -12    5.36    0.49
  -2  10 -12    4.54    0.44
  -2 -10  12    4.79    0.45
   3 -10  12    1.81    0.38
  -3 -10 -12    1.24    0.34
  -3  10  12    1.67    0.37
   3  10 -12    2.02    0.44
   3  10  12    1.52    0.39
  -3 -10  12    1.14    0.36
  -3  10 -12    1.77    0.39
   3 -10 -12    0.99    0.45
   0 -11 -12    0.37    0.34
   0  11 -12    0.32    0.35
   0 -11  12   -0.02    0.33
   0  11  12    0.97    0.33
   0  11  12    0.28    0.38
  -1  11  12    1.20    0.36
  -1  11  12    1.77    0.41
   1 -11  12    1.16    0.37
   1  11 -12    1.17    0.38
   1  11 -12    1.78    0.39
  -1 -11 -12    0.77    0.34
  -1 -11  12    0.17    0.34
   1  11  12    1.39    0.40
   1 -11 -12    1.00    0.37
   1  11  12    0.70    0.30
  -1  11 -12    0.69    0.37
  -2  11  12    0.67    0.37
   2  11 -12    1.11    0.41
  -2 -11 -12    0.43    0.34
   2 -11  12    0.58    0.36
  -2  11 -12   -0.12    0.37
   2  11  12    1.20    0.39
  -2 -11  12    0.79    0.36
   2 -11 -12    0.90    0.42
   0  12  12    7.96    0.57
   0 -12 -12    8.39    0.57
   0 -12  12    6.85    0.56
   0  12 -12    9.15    0.54
   0  12  12    9.03    0.52
  -1 -12 -12    1.36    0.38
  -1  12  12    1.53    0.46
   1 -12  12    1.32    0.40
   1  12 -12    2.13    0.42
  -1  12  12    1.78    0.39
   1  12 -12    1.67    0.42
   1 -12 -12    1.22    0.40
   1  12  12    2.05    0.35
  -1 -12  12    1.53    0.40
   1  12  12    1.36    0.45
  -1  12 -12    2.54    0.44
   0   0  13   -0.31    0.19
   0   0  13    0.11    0.24
   0   0  13    0.35    0.20
   0   0 -13    0.06    0.23
  -1   0  13    5.11    0.35
   1   0  13    5.34    0.36
  -1   0  13    5.76    0.32
  -1   0 -13    5.31    0.34
   1   0  13    5.14    0.33
  -1   0  13    5.30    0.33
  -2   0 -13    4.39    0.33
   2   0  13    4.06    0.31
  -2   0  13    4.32    0.33
  -2   0  13    4.17    0.31
   2   0  13    4.16    0.34
  -3   0 -13    7.06    0.40
   3   0  13    5.92    0.40
  -3   0  13    6.46    0.40
   3   0  13    6.83    0.39
  -3   0  13    6.21    0.39
   3   0 -13    5.57    0.42
  -4   0  13    5.75    0.42
  -4   0  13    6.51    0.41
   4   0  13    5.91    0.43
   4   0 -13    5.70    0.45
  -4   0 -13    6.35    0.41
   4   0  13    6.71    0.40
  -5   0  13    8.09    0.53
   5   0  13    8.95    0.54
  -5   0 -13    9.70    0.52
  -5   0 -13   10.16    0.50
   0  -1  13    2.05    0.27
   0   1  13    2.05    0.26
   0   1 -13    2.17    0.28
   0  -1 -13    2.12    0.27
   0   1  13    1.75    0.23
   0   1  13    1.85    0.30
   0   1 -13    1.72    0.22
   0  -1  13    2.31    0.29
  -1   1  13   26.28    0.98
   1   1 -13   28.47    0.93
   1  -1  13   27.36    0.96
   1  -1  13   27.90    0.97
  -1   1  13   27.80    0.95
  -1   1  13   29.39    0.93
  -1  -1 -13   27.99    0.95
  -1  -1  13   27.13    0.93
   1   1  13   28.54    0.97
   1   1  13   27.31    0.94
  -1  -1  13   26.37    0.95
  -1   1 -13   28.08    0.96
   2  -1  13    2.21    0.29
   2  -1  13    1.88    0.30
  -2  -1 -13    2.68    0.29
   2   1 -13    2.18    0.31
  -2   1  13    2.26    0.34
  -2   1  13    2.01    0.27
  -2   1  13    2.13    0.29
  -2   1 -13    2.38    0.32
   2   1  13    2.45    0.30
  -2  -1  13    1.97    0.27
   2   1  13    2.28    0.28
  -3   1  13   12.01    0.53
   3  -1  13   12.66    0.54
  -3   1  13   12.31    0.53
  -3  -1 -13   12.70    0.53
   3   1 -13   12.66    0.56
   3  -1  13   12.05    0.55
   3   1  13   12.61    0.57
   3   1  13   12.59    0.55
  -3  -1  13   12.61    0.57
  -3   1 -13   13.95    0.58
   3  -1 -13   13.81    0.61
  -4   1  13    7.42    0.44
  -4  -1 -13    7.34    0.42
  -4   1  13    7.34    0.44
   4  -1  13    6.97    0.45
  -4  -1 -13    7.41    0.43
   4  -1  13    7.58    0.43
   4   1 -13    7.15    0.43
   4   1  13    6.71    0.45
  -4   1 -13    7.65    0.44
   4  -1 -13    7.04    0.49
  -4  -1  13    7.03    0.45
   5   1 -13    3.50    0.39
  -5   1  13    3.44    0.40
   5  -1  13    3.37    0.36
  -5   1  13    3.23    0.40
   5  -1  13    3.50    0.42
  -5  -1 -13    2.93    0.38
  -5  -1 -13    3.64    0.39
  -5  -1  13    2.81    0.42
  -5   1 -13    3.70    0.41
   5   1  13    2.68    0.38
   5  -1 -13    3.69    0.50
   0  -2  13   53.77    1.74
   0   2  13   53.65    1.73
   0   2 -13   54.69    1.69
   0   2  13   53.74    1.76
   0  -2 -13   52.94    1.71
   0   2 -13   53.00    1.74
   0  -2  13   53.90    1.73
   0   2  13   54.67    1.69
   1   2 -13    1.95    0.25
  -1  -2 -13    1.76    0.25
  -1   2  13    2.03    0.31
   1  -2  13    1.81    0.25
   1  -2  13    1.94    0.27
  -1   2  13    2.15    0.24
   1   2  13    2.09    0.31
  -1   2 -13    2.23    0.31
  -1  -2  13    1.70    0.25
   1  -2 -13    1.71    0.24
  -1  -2  13    2.27    0.29
  -2   2  13   47.78    1.56
  -2   2  13   47.59    1.62
   2  -2  13   46.92    1.59
   2  -2  13   50.19    1.60
  -2  -2 -13   49.04    1.58
  -2  -2 -13   49.81    1.56
   2   2 -13   49.78    1.57
  -2   2 -13   48.88    1.59
   2  -2 -13   47.50    1.56
  -2  -2  13   48.85    1.56
   2   2  13   49.19    1.60
   3  -2  13   -0.06    0.22
   3  -2  13    0.19    0.28
  -3   2  13    0.23    0.26
  -3   2  13   -0.35    0.26
  -3  -2 -13    0.14    0.23
   3   2 -13    0.19    0.27
  -3   2 -13   -0.01    0.28
  -3  -2  13   -0.19    0.29
   3   2  13    0.03    0.27
   3  -2 -13    0.01    0.32
   4  -2  13    5.10    0.39
  -4  -2 -13    5.26    0.38
   4   2 -13    5.65    0.39
  -4   2  13    4.87    0.39
   4  -2  13    5.05    0.41
  -4  -2 -13    5.83    0.40
  -4   2  13    5.10    0.38
  -4  -2  13    4.69    0.41
   4  -2 -13    5.28    0.46
   4   2  13    4.86    0.40
  -4   2 -13    5.37    0.40
  -5  -2 -13    1.39    0.30
  -5   2  13    1.10    0.36
  -5   2  13    1.01    0.35
  -5  -2 -13    2.26    0.35
   5   2 -13    1.28    0.35
   5  -2  13    1.29    0.30
   5  -2  13    1.63    0.39
  -5  -2  13    1.31    0.38
  -5   2 -13    1.32    0.38
   5   2  13    1.27    0.36
   5  -2 -13    1.51    0.48
   0   3 -13    2.03    0.30
   0  -3 -13    1.84    0.26
   0  -3  13    2.02    0.27
   0   3  13    2.12    0.23
   0  -3 -13    1.95    0.23
   0   3  13    1.95    0.30
   0  -3  13    2.25    0.28
   0   3 -13    2.04    0.23
  -1   3  13   35.71    1.25
  -1  -3 -13   34.95    1.17
   1  -3  13   36.25    1.21
  -1   3  13   36.90    1.17
  -1  -3 -13   36.37    1.21
   1   3 -13   35.78    1.18
   1  -3  13   36.26    1.20
   1  -3 -13   36.45    1.22
  -1  -3  13   36.52    1.22
  -1   3 -13   36.71    1.24
   1   3  13   36.96    1.25
  -2  -3 -13    7.41    0.41
  -2   3  13    7.70    0.47
  -2  -3 -13    8.37    0.38
   2   3 -13    7.59    0.41
   2  -3  13    8.52    0.42
   2  -3  13    7.70    0.42
  -2   3  13    8.22    0.40
   2   3  13    7.45    0.43
   2  -3 -13    7.20    0.39
  -2  -3  13    7.89    0.41
  -2   3 -13    7.96    0.43
  -3   3  13    4.06    0.35
   3  -3  13    4.64    0.37
  -3  -3 -13    4.40    0.36
   3   3 -13    4.39    0.35
   3  -3  13    4.81    0.36
  -3  -3 -13    4.92    0.32
  -3   3 -13    4.75    0.39
   3   3  13    5.00    0.38
  -3  -3  13    4.46    0.40
   3  -3 -13    4.90    0.43
  -4   3  13    4.15    0.39
   4   3 -13    4.39    0.39
   4  -3  13    4.73    0.41
   4  -3  13    4.14    0.37
  -4  -3 -13    4.16    0.36
  -4  -3 -13    4.56    0.35
  -4  -3  13    4.06    0.41
   4   3  13    3.80    0.38
   4  -3 -13    4.19    0.48
  -4   3 -13    4.74    0.41
  -5  -3 -13    0.69    0.33
  -5   3  13    0.38    0.36
   5  -3  13    0.78    0.30
   5   3 -13    0.30    0.35
  -5  -3 -13    0.38    0.30
   5  -3  13    0.57    0.37
   5  -3 -13    0.19    0.45
   5   3  13    1.18    0.36
  -5   3 -13    0.27    0.36
  -5  -3  13    0.09    0.38
   0   4  13    0.86    0.21
   0   4  13    1.46    0.30
   0   4 -13    1.05    0.29
   0   4 -13    1.13    0.23
   0  -4 -13    0.79    0.23
   0  -4  13    0.61    0.25
   1   4 -13    7.42    0.40
  -1  -4 -13    7.99    0.42
  -1   4  13    8.55    0.39
   1  -4  13    7.76    0.43
  -1   4  13    8.38    0.47
  -1  -4  13    7.67    0.42
  -1   4 -13    8.03    0.45
   1  -4 -13    8.01    0.41
   1   4  13    7.68    0.45
  -2   4  13    3.48    0.32
  -2  -4 -13    3.47    0.33
  -2   4  13    4.01    0.40
   2  -4  13    3.77    0.32
   2   4 -13    3.47    0.33
   2  -4  13    3.49    0.35
   2   4  13    4.11    0.37
  -2  -4  13    3.96    0.34
  -2   4 -13    4.36    0.38
   2  -4 -13    3.46    0.32
  -3  -4 -13   13.93    0.59
   3   4 -13   13.40    0.59
  -3   4  13   13.35    0.57
   3  -4  13   14.36    0.60
   3  -4  13   13.78    0.59
  -3  -4  13   12.23    0.60
   3  -4 -13   12.89    0.64
   3   4  13   13.40    0.59
  -3   4 -13   13.33    0.60
   4  -4  13    0.39    0.34
   4   4 -13    0.44    0.32
   4  -4  13   -0.11    0.27
  -4  -4 -13    0.07    0.26
  -4   4  13    0.00    0.32
   4  -4 -13    0.16    0.40
  -4   4 -13    0.39    0.35
   4   4  13    0.34    0.32
  -4  -4  13    0.06    0.35
   5  -4  13    8.37    0.54
  -5   4  13    7.93    0.51
   5   4 -13    7.32    0.49
   5  -4  13    8.96    0.50
  -5  -4 -13    7.83    0.48
  -5   4 -13    8.20    0.53
  -5  -4  13    6.62    0.51
   5   4  13    8.31    0.51
   5  -4 -13    7.77    0.60
   0   5  13    0.24    0.20
   0   5 -13   -0.04    0.28
   0  -5  13   -0.31    0.24
   0   5 -13    0.20    0.22
   0  -5 -13    0.22    0.23
   0   5  13    0.01    0.28
  -1   5  13    8.07    0.48
  -1   5  13    7.92    0.39
  -1  -5 -13    8.19    0.43
   1   5 -13    8.12    0.41
   1  -5  13    8.05    0.44
   1   5  13    8.39    0.47
  -1   5 -13    8.17    0.46
   1  -5 -13    8.49    0.43
  -1  -5  13    7.53    0.42
   2  -5  13   12.98    0.58
  -2  -5 -13   13.73    0.58
  -2   5  13   13.48    0.56
  -2   5  13   13.31    0.64
   2   5 -13   14.14    0.57
  -2  -5  13   13.03    0.54
   2  -5 -13   12.47    0.54
   2   5  13   12.66    0.58
  -2   5 -13   12.12    0.58
   3  -5  13    3.99    0.37
  -3  -5 -13    4.00    0.36
  -3   5  13    2.86    0.36
   3  -5  13    3.50    0.38
   3   5 -13    3.41    0.37
   3  -5 -13    3.03    0.43
  -3   5 -13    2.92    0.37
  -3  -5  13    3.50    0.41
   3   5  13    3.32    0.36
   4  -5  13   13.51    0.62
  -4  -5 -13   13.94    0.61
   4   5 -13   12.94    0.61
   4  -5  13   12.92    0.60
  -4   5  13   13.29    0.61
  -4   5 -13   12.99    0.61
   4  -5 -13   12.91    0.69
  -4  -5  13   11.15    0.61
   4   5  13   13.00    0.61
  -5  -5 -13    1.28    0.34
   5  -5  13    0.81    0.33
   5  -5  13    1.52    0.41
   5   5 -13    1.43    0.38
  -5   5  13    1.87    0.39
  -5   5 -13    1.41    0.40
   5  -5 -13    1.02    0.49
  -5  -5  13    1.62    0.43
   5   5  13    1.57    0.38
   0   6  13   19.79    0.80
   0   6 -13   19.95    0.78
   0  -6 -13   20.52    0.76
   0   6  13   21.15    0.72
   0  -6  13   19.94    0.77
   1  -6  13    0.92    0.28
  -1   6  13    1.30    0.26
  -1   6  13    1.40    0.35
  -1  -6 -13    1.15    0.27
   1   6 -13    1.57    0.29
   1  -6 -13    0.95    0.27
  -1   6 -13    2.05    0.34
  -1  -6  13    1.27    0.29
   1   6  13    1.78    0.33
  -2   6  13    9.54    0.47
  -2  -6 -13    9.85    0.49
   2  -6  13    9.27    0.50
   2   6 -13   10.15    0.49
  -2   6  13    9.34    0.55
   2  -6 -13    9.94    0.49
  -2   6 -13   10.14    0.52
   2   6  13    9.75    0.52
  -2  -6  13   10.08    0.49
  -3  -6 -13   12.12    0.57
   3   6 -13   12.83    0.58
   3  -6  13   12.28    0.59
  -3   6  13   12.44    0.57
   3   6  13   12.26    0.59
  -3   6 -13   12.86    0.59
   3  -6 -13   11.70    0.63
   4  -6  13    4.19    0.43
   4  -6  13    4.58    0.43
   4   6 -13    4.42    0.43
  -4   6  13    4.29    0.43
  -4  -6 -13    4.00    0.41
   4   6  13    4.54    0.42
  -4  -6  13    3.78    0.45
  -4   6 -13    4.55    0.44
   4  -6 -13    3.71    0.50
   5  -6  13    2.37    0.37
  -5  -6 -13    2.20    0.37
   5   6 -13    2.17    0.42
   5  -6  13    2.12    0.45
  -5   6  13    1.48    0.42
   5   6  13    2.21    0.42
   5  -6 -13    2.21    0.53
  -5  -6  13    1.62    0.44
  -5   6 -13    1.86    0.42
   0   7  13    0.73    0.26
   0  -7  13    0.31    0.28
   0   7  13    0.44    0.32
   0   7 -13    1.08    0.32
   0  -7 -13    0.55    0.28
  -1   7  13   12.61    0.53
   1  -7  13   12.18    0.57
  -1  -7 -13   12.49    0.58
   1   7 -13   12.66    0.55
  -1   7  13   12.61    0.62
   1   7  13   12.03    0.59
  -1  -7  13   12.33    0.56
   1  -7 -13   12.46    0.57
  -1   7 -13   12.58    0.58
   2   7 -13    7.00    0.44
  -2  -7 -13    6.54    0.44
   2  -7  13    6.30    0.44
  -2   7  13    7.02    0.42
   2  -7 -13    6.23    0.44
  -2   7 -13    7.41    0.46
   2   7  13    7.57    0.46
  -2  -7  13    6.85    0.44
   3  -7  13    4.18    0.41
   3   7 -13    4.34    0.42
  -3  -7 -13    3.22    0.40
  -3   7  13    4.20    0.40
   3   7  13    4.66    0.42
  -3   7 -13    3.83    0.41
   3  -7 -13    3.73    0.47
   4  -7  13    2.97    0.41
  -4  -7 -13    2.61    0.39
  -4   7  13    2.67    0.40
   4   7 -13    2.48    0.40
  -4  -7  13    2.64    0.44
   4  -7 -13    2.29    0.50
   4   7  13    2.42    0.39
  -4   7 -13    2.60    0.43
   0   8 -13    3.18    0.37
   0   8  13    2.73    0.32
   0  -8  13    1.86    0.33
   0  -8 -13    2.23    0.34
   0   8  13    2.84    0.38
  -1   8  13    1.34    0.37
   1   8 -13    1.16    0.33
  -1  -8 -13    0.91    0.31
   1  -8  13    0.61    0.31
  -1   8  13    1.22    0.31
  -1  -8  13    0.24    0.30
   1   8  13    1.23    0.34
   1  -8 -13    0.83    0.30
  -1   8 -13    1.10    0.35
  -2  -8 -13    3.06    0.39
   2   8 -13    3.84    0.41
   2  -8  13    3.42    0.40
  -2   8  13    3.83    0.36
  -2  -8  13    2.99    0.39
   2  -8 -13    3.45    0.44
   2   8  13    3.47    0.39
  -2   8 -13    2.88    0.39
  -3   8  13    3.65    0.39
  -3  -8 -13    2.70    0.40
   3  -8  13    2.69    0.41
   3   8 -13    3.35    0.42
   3   8  13    3.50    0.41
   3  -8 -13    3.50    0.47
  -3  -8  13    2.87    0.39
  -3   8 -13    3.43    0.41
  -4  -8 -13    0.14    0.34
   4   8 -13    0.34    0.40
  -4   8  13   -0.15    0.37
   4  -8  13    0.37    0.35
  -4  -8  13    0.00    0.42
   4  -8 -13    0.10    0.46
  -4   8 -13    0.74    0.41
   4   8  13    0.35    0.39
   0   9  13    2.17    0.40
   0   9  13    1.89    0.32
   0   9 -13    1.60    0.37
   0  -9 -13    1.73    0.34
   0  -9  13    1.42    0.33
   1  -9  13    0.31    0.30
  -1   9  13    0.85    0.32
   1   9 -13    0.53    0.33
  -1  -9 -13   -0.08    0.30
  -1   9  13    0.17    0.35
   1   9 -13    0.95    0.36
  -1   9 -13   -0.09    0.34
   1  -9 -13   -0.17    0.29
   1   9  13    0.51    0.35
  -1  -9  13    0.54    0.32
  -2  -9 -13    4.49    0.43
   2   9 -13    5.32    0.47
  -2   9  13    4.44    0.41
   2  -9  13    5.15    0.44
   2   9  13    5.22    0.45
  -2  -9  13    4.80    0.44
   2  -9 -13    4.81    0.48
  -2   9 -13    4.95    0.43
  -3   9  13    0.97    0.37
   3   9 -13    0.80    0.40
   3  -9  13    0.91    0.35
  -3  -9 -13    0.56    0.34
   3  -9 -13    1.30    0.43
  -3   9 -13    1.28    0.38
  -3  -9  13    0.63    0.33
   3   9  13    1.08    0.37
   0  10  13    6.82    0.44
   0  10 -13    6.35    0.46
   0 -10 -13    5.77    0.47
   0 -10  13    5.09    0.46
   0  10  13    5.95    0.50
   1  10 -13    7.11    0.50
  -1  10  13    8.09    0.48
  -1 -10 -13    7.59    0.52
   1 -10  13    7.36    0.51
   1  10 -13    8.24    0.50
  -1  10  13    7.14    0.52
  -1 -10  13    7.52    0.51
  -1  10 -13    7.38    0.50
   1  10  13    7.91    0.52
   1 -10 -13    7.16    0.49
   2 -10  13    2.20    0.38
   2  10 -13    2.12    0.42
  -2  10  13    2.82    0.38
  -2 -10 -13    1.52    0.37
   2 -10 -13    2.73    0.47
   2  10  13    2.36    0.43
  -2  10 -13    2.74    0.42
  -2 -10  13    2.31    0.38
  -3 -10 -13    3.12    0.45
   3  10 -13    3.72    0.50
  -3  10  13    3.41    0.43
   3 -10  13    2.35    0.41
  -3  10 -13    3.03    0.44
   3 -10 -13    3.04    0.49
  -3 -10  13    3.74    0.45
   3  10  13    3.33    0.44
   0  11 -13   11.31    0.60
   0  11  13   11.25    0.63
   0  11  13   11.76    0.56
   0 -11  13    9.91    0.61
   0 -11 -13   10.27    0.59
  -1  11  13    8.81    0.52
   1  11 -13    8.58    0.53
   1  11 -13    7.77    0.52
   1 -11  13    6.51    0.52
  -1 -11 -13    7.40    0.53
  -1  11  13    7.46    0.53
  -1  11 -13    7.80    0.53
   1 -11 -13    7.66    0.54
   1  11  13    7.38    0.52
  -1 -11  13    7.43    0.53
   2 -11  13    3.30    0.47
  -2 -11 -13    3.96    0.45
   2  11 -13    4.52    0.49
  -2  11  13    4.26    0.47
  -2  11 -13    4.06    0.46
   2  11  13    4.05    0.46
   2 -11 -13    4.34    0.51
  -2 -11  13    4.61    0.49
   0   0 -14  133.35    4.20
   0   0  14  134.29    4.20
   0   0  14  139.21    4.23
   1   0  14    0.15    0.27
  -1   0 -14    0.13    0.26
  -1   0  14   -0.25    0.22
  -1   0  14   -0.39    0.23
  -1   0  14    0.11    0.28
   1   0  14   -0.18    0.22
  -2   0  14   62.85    2.00
   2   0  14   62.22    2.04
  -2   0  14   65.03    2.00
   2   0  14   61.58    2.02
  -2   0 -14   63.51    2.02
  -3   0  14   -0.05    0.30
   3   0  14   -0.09    0.23
   3   0  14    0.01    0.28
   3   0 -14    0.26    0.32
  -3   0  14    0.14    0.29
  -3   0 -14    0.21    0.28
  -4   0 -14   12.30    0.56
  -4   0  14   11.35    0.56
   4   0  14   12.00    0.58
  -4   0  14   11.55    0.56
   4   0  14   12.04    0.55
  -5   0 -14    0.24    0.34
   5   0  14    0.40    0.35
  -5   0  14    0.37    0.37
  -5   0 -14    0.01    0.29
   0   1 -14    0.00    0.26
   0   1  14    0.62    0.28
   0   1  14    0.04    0.22
   0  -1 -14   -0.17    0.24
   0  -1  14    0.04    0.25
   0  -1  14   -0.33    0.21
  -1  -1 -14   82.12    2.53
   1  -1  14   80.71    2.56
  -1   1  14   81.11    2.54
   1  -1  14   77.65    2.54
   1   1 -14   82.15    2.51
  -1   1  14   81.57    2.51
  -1   1  14   78.70    2.57
  -1  -1  14   79.41    2.52
   1   1  14   79.47    2.52
  -1  -1  14   78.80    2.54
   1   1  14   82.08    2.55
  -1   1 -14   79.85    2.53
  -2   1  14    2.99    0.31
   2   1 -14    3.29    0.30
   2  -1  14    3.72    0.33
  -2   1  14    3.96    0.38
   2   1 -14    4.26    0.37
  -2   1  14    3.86    0.32
   2  -1  14    3.89    0.34
  -2  -1 -14    4.33    0.32
   2   1  14    4.25    0.34
   2   1  14    4.16    0.34
  -2   1 -14    4.27    0.36
  -2  -1  14    3.73    0.32
  -3   1  14   16.35    0.67
  -3   1  14   16.94    0.65
  -3  -1 -14   17.57    0.66
   3  -1  14   16.58    0.68
   3  -1  14   16.61    0.67
   3   1 -14   16.32    0.65
   3  -1 -14   16.07    0.70
  -3  -1  14   16.05    0.68
  -3   1 -14   16.75    0.67
   3   1  14   16.92    0.68
   3   1  14   16.42    0.65
  -4  -1 -14    3.18    0.35
  -4  -1 -14    2.70    0.34
  -4   1  14    2.76    0.37
   4  -1  14    2.64    0.35
   4  -1  14    2.28    0.37
   4   1 -14    2.36    0.35
  -4   1  14    2.44    0.36
  -4   1 -14    2.47    0.36
   4   1  14    2.37    0.35
   4  -1 -14    2.58    0.42
  -4  -1  14    2.08    0.38
   5  -1  14    6.77    0.45
   5  -1  14    6.14    0.48
  -5  -1 -14    8.27    0.48
   5   1 -14    6.50    0.46
  -5  -1 -14    7.37    0.48
  -5   1  14    7.46    0.49
  -5   1  14    7.04    0.48
  -5  -1  14    7.13    0.51
  -5   1 -14    8.33    0.51
   5   1  14    7.13    0.50
   0  -2 -14   23.27    0.82
   0   2 -14   23.99    0.86
   0  -2  14   23.27    0.84
   0   2  14   23.91    0.88
   0  -2  14   23.75    0.85
  -1  -2 -14    1.83    0.26
  -1   2  14    2.01    0.25
   1  -2  14    2.06    0.30
   1   2 -14    1.76    0.26
   1  -2  14    1.33    0.26
  -1   2  14    2.29    0.35
   1   2  14    2.34    0.33
  -1   2 -14    2.19    0.31
  -1  -2  14    2.27    0.31
   1  -2 -14    1.71    0.28
   1  -2 -14    1.69    0.26
  -1  -2  14    1.54    0.25
   2   2 -14   11.70    0.49
  -2  -2 -14   11.11    0.47
   2  -2  14   10.95    0.51
  -2   2  14   10.92    0.48
  -2   2  14   10.28    0.54
   2  -2  14   10.36    0.49
  -2  -2 -14   10.80    0.50
  -2  -2  14   11.62    0.50
   2   2  14   11.48    0.54
   2  -2 -14   10.80    0.50
  -2   2 -14   11.81    0.53
   3  -2  14    6.11    0.40
  -3  -2 -14    6.59    0.40
   3  -2  14    6.35    0.41
  -3   2  14    5.85    0.39
   3   2 -14    6.43    0.40
  -3   2  14    5.97    0.40
  -3  -2 -14    6.12    0.38
  -3  -2  14    5.92    0.43
   3  -2 -14    5.39    0.46
  -3   2 -14    6.24    0.42
   3   2  14    5.94    0.40
   4   2 -14    3.98    0.39
  -4   2  14    4.13    0.39
   4  -2  14    4.50    0.38
  -4  -2 -14    4.88    0.39
  -4  -2 -14    4.57    0.38
  -4   2  14    3.83    0.39
   4  -2  14    4.53    0.40
  -4  -2  14    3.78    0.41
   4  -2 -14    3.61    0.48
  -4   2 -14    4.68    0.42
   4   2  14    3.98    0.39
   5   2 -14    3.91    0.42
  -5  -2 -14    4.39    0.39
  -5   2  14    3.70    0.42
   5  -2  14    4.05    0.43
   5  -2  14    3.64    0.40
  -5  -2 -14    4.21    0.41
  -5  -2  14    3.40    0.45
   5  -2 -14    3.44    0.52
  -5   2 -14    3.65    0.44
   5   2  14    4.00    0.41
   0   3  14    0.40    0.21
   0   3 -14    0.07    0.28
   0   3  14    0.25    0.28
   0  -3 -14    0.25    0.24
   0  -3  14    0.24    0.24
   1  -3  14    0.46    0.26
   1   3 -14    0.31    0.25
  -1   3  14    0.40    0.30
   1  -3  14    0.54    0.25
  -1  -3 -14    0.42    0.24
  -1   3  14    0.23    0.23
  -1   3 -14    0.38    0.30
   1   3  14    0.85    0.30
   1  -3 -14    0.24    0.24
  -1  -3  14    0.56    0.25
  -2   3  14    1.48    0.28
   2  -3  14    1.07    0.26
  -2  -3 -14    1.86    0.25
   2   3 -14    1.11    0.28
   2  -3  14    1.40    0.29
  -2  -3 -14    1.14    0.26
  -2   3  14    1.43    0.34
  -2  -3  14    1.10    0.26
   2  -3 -14    1.07    0.24
   2   3  14    1.46    0.32
  -2   3 -14    1.80    0.33
  -3  -3 -14    3.79    0.36
   3  -3  14    3.61    0.36
   3   3 -14    4.02    0.37
  -3  -3 -14    4.31    0.33
   3  -3  14    4.06    0.37
  -3   3  14    4.49    0.36
  -3  -3  14    3.75    0.40
   3   3  14    4.25    0.37
  -3   3 -14    4.11    0.38
   3  -3 -14    3.49    0.42
  -4   3  14    4.29    0.41
   4  -3  14    4.18    0.41
   4   3 -14    5.01    0.41
  -4  -3 -14    5.23    0.38
  -4  -3 -14    5.05    0.39
   4  -3  14    4.79    0.40
   4  -3 -14    4.40    0.50
   4   3  14    4.69    0.41
  -4  -3  14    4.19    0.43
  -4   3 -14    4.91    0.43
  -5  -3 -14    0.37    0.33
   5  -3  14    0.79    0.32
  -5  -3 -14    0.75    0.31
   5  -3  14    0.48    0.38
   5   3 -14    0.24    0.36
  -5   3  14    0.63    0.37
   5   3  14    0.53    0.36
  -5   3 -14    0.51    0.38
   5  -3 -14    0.04    0.46
  -5  -3  14    0.63    0.41
   0   4  14   13.55    0.51
   0  -4 -14   13.95    0.57
   0  -4  14   13.32    0.57
   0   4  14   13.11    0.60
   0   4 -14   12.94    0.59
  -1   4  14    0.19    0.32
  -1   4  14   -0.18    0.23
  -1  -4 -14   -0.13    0.22
   1   4 -14    0.09    0.26
   1  -4  14    0.02    0.26
   1   4  14   -0.14    0.28
  -1   4 -14    0.20    0.30
   1  -4 -14    0.08    0.23
  -1  -4  14    0.06    0.25
  -2   4  14   29.88    1.13
   2  -4  14   31.99    1.09
  -2   4  14   31.38    1.07
  -2  -4 -14   31.54    1.09
   2  -4  14   30.69    1.09
   2   4 -14   33.01    1.08
   2  -4 -14   31.41    1.09
  -2   4 -14   31.41    1.12
  -2  -4  14   32.46    1.09
   2   4  14   31.72    1.13
   3  -4  14    0.88    0.31
  -3   4  14    0.44    0.31
   3  -4  14    0.72    0.29
  -3  -4 -14    1.21    0.27
   3   4 -14    0.64    0.31
  -3   4 -14    0.88    0.34
  -3  -4  14    1.07    0.37
   3  -4 -14    1.26    0.39
   3   4  14    1.45    0.33
   4   4 -14    6.09    0.44
  -4  -4 -14    7.32    0.45
   4  -4  14    6.22    0.45
   4  -4  14    6.67    0.45
  -4   4  14    6.48    0.45
   4   4  14    6.72    0.45
  -4   4 -14    6.78    0.48
  -4  -4  14    6.04    0.49
   4  -4 -14    7.42    0.56
   5  -4  14    0.49    0.39
  -5  -4 -14    0.63    0.31
   5  -4  14    0.71    0.32
  -5   4  14    1.20    0.39
   5   4 -14    0.44    0.37
   5  -4 -14    1.04    0.49
   5   4  14    0.44    0.38
  -5   4 -14    0.52    0.38
  -5  -4  14    0.34    0.41
   0   5  14    1.85    0.34
   0   5 -14    1.59    0.34
   0  -5 -14    1.89    0.28
   0   5  14    1.84    0.25
   0  -5  14    1.06    0.28
  -1   5  14   46.38    1.47
  -1  -5 -14   45.99    1.51
  -1   5  14   45.31    1.55
   1  -5  14   43.19    1.50
   1   5 -14   46.06    1.48
  -1  -5  14   44.52    1.50
   1  -5 -14   46.98    1.50
  -1   5 -14   43.82    1.52
   1   5  14   46.33    1.55
   2  -5  14    3.82    0.38
  -2   5  14    4.24    0.35
   2   5 -14    4.30    0.38
  -2  -5 -14    4.81    0.37
  -2   5  14    3.95    0.42
   2  -5 -14    4.27    0.36
   2   5  14    4.55    0.40
  -2   5 -14    4.30    0.41
  -2  -5  14    4.10    0.37
   3  -5  14   25.63    0.97
  -3  -5 -14   26.12    0.97
  -3   5  14   26.87    0.96
   3   5 -14   27.53    0.96
   3  -5 -14   24.78    1.00
   3   5  14   26.32    0.97
  -3   5 -14   25.72    0.96
  -4   5  14    0.45    0.35
   4   5 -14    0.49    0.36
  -4  -5 -14    0.79    0.30
   4  -5  14    0.84    0.36
   4  -5  14    0.68    0.31
  -4   5 -14    1.32    0.39
  -4  -5  14    0.71    0.39
   4  -5 -14    1.10    0.46
   4   5  14    0.76    0.35
   0  -6  14   22.47    0.88
   0   6  14   24.61    0.93
   0  -6 -14   25.20    0.89
   0   6  14   25.04    0.84
   0   6 -14   23.38    0.90
  -1   6  14   10.68    0.46
   1   6 -14   10.22    0.48
  -1  -6 -14    9.89    0.50
   1  -6  14    9.04    0.50
  -1   6  14    9.36    0.54
  -1  -6  14    8.93    0.49
   1  -6 -14    9.63    0.48
   1   6  14    9.40    0.52
  -1   6 -14    9.81    0.52
  -2  -6 -14   28.26    0.99
  -2   6  14   26.64    1.04
   2   6 -14   27.35    0.97
  -2   6  14   27.76    0.96
   2  -6  14   25.75    0.99
  -2  -6  14   27.94    1.01
  -2   6 -14   27.59    1.04
   2   6  14   29.73    1.06
  -3   6  14    6.70    0.45
   3   6 -14    6.30    0.46
   3  -6  14    6.86    0.47
  -3  -6 -14    6.41    0.44
   3  -6 -14    5.98    0.52
  -3   6 -14    6.37    0.45
   3   6  14    6.97    0.46
  -4   6  14    4.94    0.45
   4   6 -14    4.66    0.45
   4  -6  14    5.20    0.45
  -4  -6 -14    5.16    0.43
  -4   6 -14    5.11    0.48
  -4  -6  14    4.93    0.49
   4  -6 -14    4.92    0.54
   4   6  14    5.47    0.43
   0   7  14    0.23    0.25
   0  -7 -14   -0.10    0.29
   0  -7  14    0.16    0.28
   0   7  14    0.46    0.33
   0   7 -14    0.60    0.33
  -1   7  14    3.26    0.42
  -1   7  14    3.02    0.33
   1  -7  14    2.34    0.37
   1   7 -14    3.28    0.37
  -1  -7 -14    2.64    0.37
   1  -7 -14    2.58    0.37
   1   7  14    3.04    0.38
  -1   7 -14    3.32    0.39
  -1  -7  14    2.40    0.36
  -2   7  14   10.45    0.51
   2   7 -14   10.65    0.53
   2  -7  14    9.43    0.53
  -2  -7 -14    9.92    0.53
  -2   7 -14    9.16    0.54
  -2  -7  14   10.24    0.52
   2   7  14   10.01    0.54
   3   7 -14    3.20    0.41
   3  -7  14    3.25    0.40
  -3  -7 -14    3.12    0.41
  -3   7  14    2.99    0.39
   3  -7 -14    2.38    0.46
  -3   7 -14    3.09    0.41
   3   7  14    3.03    0.40
   4   7 -14    5.22    0.46
  -4   7  14    4.35    0.46
  -4  -7 -14    5.31    0.45
   4  -7  14    4.57    0.47
   4  -7 -14    3.77    0.54
  -4   7 -14    5.08    0.48
   4   7  14    5.55    0.46
  -4  -7  14    4.13    0.49
   0   8  14    2.68    0.32
   0  -8 -14    1.53    0.34
   0   8 -14    1.83    0.37
   0  -8  14    1.80    0.34
   0   8  14    2.39    0.40
   1   8 -14    2.39    0.40
   1  -8  14    1.85    0.34
   1   8 -14    2.59    0.37
  -1   8  14    2.07    0.41
  -1  -8 -14    1.61    0.34
  -1   8  14    2.27    0.33
   1   8  14    2.41    0.39
   1  -8 -14    1.75    0.34
  -1   8 -14    1.63    0.38
  -1  -8  14    1.64    0.33
  -2  -8 -14    0.32    0.31
  -2   8  14    0.78    0.32
   2  -8  14    0.21    0.33
   2   8 -14    0.20    0.35
   2  -8 -14    0.49    0.40
  -2   8 -14    0.88    0.36
  -2  -8  14   -0.26    0.30
   2   8  14   -0.11    0.32
  -3  -8 -14    2.26    0.37
  -3   8  14    2.60    0.39
   3   8 -14    1.85    0.40
   3  -8  14    1.77    0.37
   3  -8 -14    2.56    0.47
   3   8  14    2.88    0.41
  -3   8 -14    2.50    0.41
   0   9  14    0.00    0.39
   0   9 -14    0.04    0.34
   0   9  14   -0.21    0.29
   0  -9 -14   -0.10    0.31
   0  -9  14   -0.07    0.31
  -1   9  14    3.84    0.38
   1  -9  14    3.47    0.41
   1   9 -14    3.24    0.41
  -1  -9 -14    3.00    0.41
   1   9 -14    3.80    0.41
  -1   9  14    3.06    0.43
  -1   9 -14    2.98    0.41
  -1  -9  14    3.26    0.42
   1  -9 -14    3.47    0.44
   1   9  14    4.03    0.43
   2   9 -14    0.27    0.39
   2  -9  14    0.38    0.34
  -2  -9 -14   -0.04    0.33
  -2   9  14    0.22    0.33
  -2  -9  14   -0.17    0.32
   2  -9 -14    0.55    0.40
  -2   9 -14    0.09    0.37
   2   9  14    0.41    0.37
  -3  -9 -14    0.16    0.34
   3  -9  14    0.96    0.37
   3   9 -14    0.77    0.41
  -3   9  14    0.85    0.38
   3  -9 -14    1.23    0.44
   3   9  14    0.91    0.40
  -3   9 -14    0.46    0.39
   0 -10 -14    2.18    0.37
   0  10  14    3.07    0.39
   0  10 -14    3.34    0.42
   0  10  14    2.79    0.44
   0 -10  14    2.09    0.38
  -1  10  14    0.15    0.38
   1  10 -14    0.93    0.38
  -1 -10 -14    0.26    0.36
   1  10 -14    0.71    0.38
  -1  10  14    0.26    0.35
   1 -10  14    0.43    0.34
   1 -10 -14    0.44    0.34
  -1 -10  14    0.80    0.36
   1  10  14    0.72    0.39
  -1  10 -14    0.25    0.39
   2  10 -14    0.30    0.41
   2 -10  14    0.69    0.37
  -2 -10 -14    0.81    0.37
  -2  10  14    0.85    0.37
  -2 -10  14    0.57    0.36
   2 -10 -14    0.96    0.45
   2  10  14    0.83    0.39
  -2  10 -14    0.31    0.39
   0 -11  14    4.31    0.48
   0  11  14    4.80    0.51
   0 -11 -14    4.62    0.49
   0  11  14    4.86    0.45
   0  11 -14    5.22    0.49
   1  11 -14    0.28    0.40
  -1  11  14   -0.30    0.37
  -1 -11 -14   -0.31    0.34
  -1  11  14    0.10    0.41
   1 -11  14   -0.18    0.36
  -1 -11  14    0.06    0.38
  -1  11 -14    0.51    0.40
   1  11  14    0.05    0.40
   1 -11 -14   -0.08    0.36
  -1   0  15    1.72    0.26
   1   0  15    2.16    0.30
   1   0  15    2.11    0.33
  -1   0  15    1.73    0.27
  -1   0 -15    2.25    0.31
  -1   0  15    1.33    0.33
   2   0  15    3.35    0.35
  -2   0  15    4.01    0.33
  -2   0 -15    3.54    0.35
   2   0  15    3.45    0.34
  -2   0  15    3.93    0.33
  -3   0 -15    6.96    0.43
   3   0  15    6.89    0.44
  -3   0  15    5.76    0.41
   3   0  15    6.70    0.42
  -4   0 -15    3.89    0.39
  -4   0  15    3.18    0.41
   4   0  15    4.40    0.38
   4   0  15    3.73    0.39
   5   0  15    6.82    0.50
   5   0 -15    6.19    0.47
  -5   0 -15    6.83    0.49
  -5   0  15    6.63    0.51
  -5   0 -15    8.12    0.49
   0  -1  15    0.51    0.28
   0   1  15    0.71    0.24
   0  -1  15    0.51    0.24
   0   1 -15    0.68    0.28
   0  -1 -15    0.97    0.27
   0   1  15    0.69    0.30
  -1  -1 -15    4.80    0.36
   1  -1  15    5.06    0.36
  -1   1  15    5.24    0.35
  -1   1  15    5.58    0.34
   1   1 -15    5.35    0.34
   1  -1  15    5.04    0.39
  -1   1  15    4.91    0.41
   1  -1 -15    4.72    0.36
  -1  -1  15    5.28    0.36
   1   1  15    5.12    0.40
  -1  -1  15    5.24    0.40
  -1   1 -15    5.04    0.38
   1   1  15    5.06    0.36
   2   1 -15    6.85    0.40
  -2   1  15    6.72    0.45
  -2  -1 -15    7.15    0.40
  -2   1  15    7.45    0.40
  -2   1  15    7.48    0.41
   2  -1  15    7.67    0.43
   2  -1  15    7.56    0.43
  -2  -1  15    7.01    0.40
   2   1  15    7.62    0.42
   2   1  15    7.26    0.44
  -2   1 -15    7.84    0.44
  -3   1  15    4.35    0.38
   3  -1  15    4.70    0.40
  -3  -1 -15    5.03    0.38
   3  -1  15    5.28    0.39
   3   1 -15    4.87    0.37
  -3   1 -15    4.53    0.41
   3  -1 -15    4.82    0.43
   3   1  15    4.91    0.37
   3   1  15    4.68    0.40
   4  -1  15    7.41    0.44
  -4   1  15    5.95    0.45
   4  -1  15    6.33    0.45
  -4   1  15    6.01    0.45
   4   1 -15    5.96    0.44
  -4  -1 -15    6.58    0.43
  -4  -1 -15    6.60    0.44
   4   1  15    6.63    0.46
  -4  -1  15    5.96    0.46
  -4   1 -15    6.74    0.45
   5   1 -15    0.93    0.37
  -5  -1 -15    0.90    0.33
  -5  -1 -15    1.27    0.38
   5  -1  15    0.91    0.40
  -5   1  15    0.62    0.39
   5  -1  15    1.21    0.31
  -5   1  15    1.08    0.39
  -5   1 -15    1.59    0.40
  -5  -1  15    1.64    0.42
   5   1  15    0.79    0.38
   0  -2 -15   15.70    0.62
   0  -2  15   16.05    0.64
   0   2 -15   15.86    0.65
   0   2  15   16.21    0.68
   0  -2  15   16.23    0.65
  -1   2  15    4.47    0.32
   1  -2  15    4.78    0.37
   1  -2  15    4.11    0.35
  -1   2  15    5.00    0.42
   1   2 -15    4.59    0.33
  -1  -2 -15    4.75    0.33
   1   2  15    4.59    0.39
   1  -2 -15    3.94    0.33
  -1  -2  15    4.55    0.35
   1  -2 -15    4.13    0.35
  -1   2 -15    4.30    0.38
  -2   2  15    3.86    0.40
  -2   2  15    4.60    0.34
   2   2 -15    4.06    0.35
  -2  -2 -15    4.03    0.36
   2  -2  15    3.82    0.36
  -2  -2 -15    4.28    0.33
   2  -2  15    5.19    0.37
   2  -2 -15    4.17    0.35
  -2   2 -15    4.36    0.38
   2   2  15    4.21    0.37
  -2  -2  15    3.43    0.34
   3   2 -15    0.42    0.30
  -3  -2 -15    0.43    0.26
  -3   2  15    0.31    0.31
  -3  -2 -15    0.83    0.27
   3  -2  15    0.88    0.32
   3  -2  15    0.74    0.27
   3  -2 -15    0.34    0.36
  -3   2 -15    0.31    0.32
   3   2  15    1.09    0.32
   4  -2  15    1.02    0.30
  -4  -2 -15    1.34    0.32
   4  -2  15    1.06    0.35
   4   2 -15    1.16    0.34
  -4   2  15    1.00    0.34
  -4  -2 -15    1.18    0.31
  -4   2 -15    1.09    0.38
   4   2  15    1.03    0.36
  -4  -2  15    0.37    0.37
   4  -2 -15    0.59    0.43
  -5  -2 -15    0.76    0.35
   5  -2  15    1.32    0.32
   5   2 -15    1.04    0.38
  -5   2  15    1.00    0.39
   5  -2  15    1.08    0.39
  -5  -2 -15    0.70    0.31
   5   2  15    0.90    0.38
  -5  -2  15    0.55    0.41
  -5   2 -15    0.92    0.39
   0  -3  15   -0.26    0.24
   0  -3 -15   -0.06    0.24
   0   3  15    0.23    0.31
   0   3 -15    0.09    0.30
  -1   3  15   13.52    0.53
   1   3 -15   13.46    0.54
   1  -3  15   12.92    0.57
  -1   3  15   13.35    0.63
  -1  -3 -15   12.78    0.58
  -1  -3  15   12.73    0.56
   1   3  15   12.92    0.60
   1  -3 -15   12.62    0.56
  -1   3 -15   12.81    0.58
   2   3 -15    0.15    0.29
  -2  -3 -15    0.71    0.26
   2  -3  15    0.13    0.26
  -2   3  15    0.54    0.34
  -2   3  15    0.36    0.27
   2  -3  15    1.19    0.30
  -2  -3  15    0.50    0.26
   2   3  15    0.97    0.33
  -2   3 -15    1.16    0.33
   2  -3 -15    0.61    0.24
   3  -3  15    1.71    0.31
  -3  -3 -15    1.84    0.31
  -3   3  15    2.01    0.34
   3  -3  15    2.34    0.34
   3   3 -15    1.73    0.34
  -3   3 -15    1.98    0.37
   3  -3 -15    2.00    0.41
   3   3  15    2.29    0.36
   4  -3  15    4.73    0.42
   4  -3  15    4.83    0.43
   4   3 -15    4.34    0.42
  -4   3  15    4.03    0.42
  -4  -3 -15    4.71    0.39
  -4   3 -15    4.28    0.44
   4  -3 -15    4.35    0.53
   4   3  15    5.19    0.43
  -4  -3  15    4.48    0.45
   0  -4  15   -0.02    0.27
   0   4  15    0.75    0.31
   0  -4 -15    0.32    0.25
   0   4 -15    0.50    0.31
  -1  -4 -15    5.43    0.40
   1  -4  15    5.61    0.41
   1   4 -15    6.22    0.38
  -1   4  15    5.90    0.47
  -1   4  15    6.43    0.36
   1  -4 -15    5.40    0.39
  -1  -4  15    5.69    0.39
  -1   4 -15    5.51    0.43
   1   4  15    6.17    0.43
   2   4 -15    8.67    0.46
   2  -4  15    7.86    0.46
  -2  -4 -15    7.83    0.45
  -2   4  15    8.20    0.52
  -2   4  15    9.08    0.45
   2  -4 -15    7.43    0.44
  -2  -4  15    8.04    0.46
  -2   4 -15    8.42    0.49
   2   4  15    8.35    0.48
   3  -4  15   16.17    0.69
   3   4 -15   16.56    0.69
   3  -4  15   16.27    0.70
  -3   4  15   16.58    0.68
  -3  -4 -15   17.79    0.69
   3   4  15   17.05    0.72
  -3   4 -15   16.87    0.71
   3  -4 -15   15.90    0.75
   4  -4  15    2.39    0.39
   4   4 -15    1.76    0.37
  -4  -4 -15    1.57    0.32
   4  -4  15    2.65    0.37
  -4   4  15    2.10    0.38
  -4   4 -15    2.15    0.41
   4  -4 -15    1.97    0.48
  -4  -4  15    2.11    0.43
   4   4  15    2.58    0.38
   0   5  15   15.98    0.70
   0  -5  15   16.07    0.67
   0  -5 -15   16.39    0.66
   0   5 -15   16.05    0.68
  -1   5  15    9.97    0.45
   1   5 -15    9.55    0.47
  -1  -5 -15    9.80    0.50
   1  -5  15    9.36    0.50
  -1   5  15    9.87    0.56
   1  -5 -15    9.83    0.50
  -1  -5  15    9.14    0.49
   1   5  15    9.75    0.54
  -1   5 -15    9.92    0.52
  -2   5  15   17.59    0.66
   2   5 -15   16.77    0.67
  -2  -5 -15   16.06    0.68
  -2   5  15   15.91    0.73
   2  -5  15   15.02    0.68
  -2   5 -15   16.17    0.70
  -2  -5  15   16.26    0.67
   2   5  15   16.50    0.71
  -3  -5 -15    3.65    0.39
   3  -5  15    3.46    0.40
  -3   5  15    4.22    0.39
   3   5 -15    4.05    0.41
   3   5  15    4.29    0.42
   3  -5 -15    3.87    0.47
  -3   5 -15    4.65    0.43
  -4   5  15    8.67    0.53
  -4  -5 -15    9.08    0.52
   4   5 -15    8.72    0.53
   4  -5  15    9.18    0.54
  -4   5 -15   10.00    0.56
   4   5  15    9.03    0.53
  -4  -5  15    7.65    0.57
   4  -5 -15    8.75    0.61
   0  -6 -15   11.28    0.56
   0   6  15   12.07    0.60
   0  -6  15   11.40    0.55
   0   6 -15   10.77    0.57
  -1   6  15    9.69    0.57
   1  -6  15    9.62    0.52
  -1   6  15   10.50    0.48
  -1  -6 -15    9.75    0.52
   1  -6 -15    9.36    0.51
   1   6  15    9.90    0.55
  -1  -6  15   10.19    0.52
  -1   6 -15    9.14    0.53
   2  -6  15   13.37    0.63
   2   6 -15   15.04    0.62
  -2   6  15   15.28    0.61
  -2  -6 -15   13.34    0.62
  -2   6  15   13.51    0.68
  -2   6 -15   13.93    0.64
   2   6  15   13.62    0.66
  -2  -6  15   13.91    0.61
   3   6 -15    9.33    0.52
  -3   6  15    8.29    0.50
  -3  -6 -15    8.57    0.50
   3  -6  15    8.31    0.51
  -3   6 -15    7.97    0.51
   3  -6 -15    8.71    0.57
   3   6  15    9.41    0.53
  -4   6  15    3.25    0.43
   4  -6  15    3.01    0.42
  -4  -6 -15    3.08    0.41
   4   6 -15    2.91    0.43
  -4   6 -15    3.36    0.46
   4   6  15    3.28    0.42
  -4  -6  15    2.61    0.48
   4  -6 -15    2.34    0.51
   0   7  15    0.79    0.35
   0   7 -15    0.67    0.34
   0  -7  15    1.18    0.31
   0  -7 -15    0.82    0.32
   1   7 -15   13.53    0.65
  -1  -7 -15   13.61    0.62
  -1   7  15   14.31    0.58
  -1   7  15   13.83    0.67
   1  -7  15   12.36    0.62
   1  -7 -15   13.64    0.63
  -1   7 -15   13.87    0.64
   1   7  15   14.46    0.66
  -1  -7  15   13.04    0.62
   2   7 -15    3.74    0.41
  -2  -7 -15    2.59    0.38
  -2   7  15    3.59    0.38
   2  -7  15    3.18    0.41
  -2   7 -15    2.87    0.40
  -2  -7  15    3.23    0.38
   2   7  15    2.82    0.40
   3   7 -15    4.19    0.44
  -3  -7 -15    4.05    0.43
  -3   7  15    3.79    0.41
   3  -7  15    4.22    0.44
   3  -7 -15    3.80    0.50
   3   7  15    3.83    0.41
  -3   7 -15    4.31    0.43
   0  -8  15    6.19    0.45
   0  -8 -15    5.91    0.47
   0   8  15    6.42    0.49
   0   8 -15    5.69    0.46
   1  -8  15   -0.22    0.31
  -1   8  15    0.16    0.38
   1   8 -15   -0.04    0.34
  -1   8  15    0.15    0.30
  -1  -8 -15   -0.40    0.31
   1   8  15    0.51    0.36
  -1   8 -15   -0.19    0.36
  -1  -8  15   -0.09    0.32
   1  -8 -15    0.09    0.32
  -2  -8 -15    2.13    0.37
   2   8 -15    3.17    0.43
   2  -8  15    1.89    0.37
  -2   8  15    3.07    0.38
  -2   8 -15    2.62    0.41
  -2  -8  15    2.07    0.36
   2  -8 -15    3.20    0.47
   2   8  15    2.73    0.41
  -3  -8 -15    0.01    0.33
  -3   8  15    0.13    0.36
   3   8 -15   -0.12    0.40
   3  -8  15    0.20    0.35
   3  -8 -15    0.53    0.43
   3   8  15    0.28    0.38
  -3   8 -15   -0.19    0.37
   0   9  15    6.51    0.53
   0   9 -15    5.70    0.46
   0  -9 -15    6.38    0.49
   0  -9  15    5.74    0.48
  -1  -9 -15    1.29    0.35
   1   9 -15    1.29    0.39
  -1   9  15    1.51    0.41
  -1   9  15    1.44    0.34
   1  -9  15    1.09    0.35
   1   9  15    1.55    0.41
  -1  -9  15    0.96    0.35
  -1   9 -15    1.05    0.40
   1  -9 -15    0.90    0.36
  -2   9  15    3.11    0.41
  -2  -9 -15    1.97    0.38
   2  -9  15    2.35    0.39
   2   9 -15    2.93    0.45
  -2  -9  15    2.81    0.42
  -2   9 -15    2.57    0.44
   2   9  15    2.86    0.43
   2  -9 -15    3.17    0.48
   0  10 -15    5.66    0.51
   0 -10  15    6.22    0.50
   0 -10 -15    6.95    0.53
   0  10  15    5.98    0.53
   1 -10  15    8.55    0.57
  -1  10  15    9.90    0.52
  -1  10  15    8.01    0.58
   1  10 -15    7.73    0.55
  -1 -10 -15    9.24    0.57
   1 -10 -15    9.05    0.57
  -1 -10  15    8.38    0.55
  -1  10 -15    9.00    0.57
   1  10  15    9.65    0.58
   0   0  16    0.69    0.25
   0   0 -16    0.67    0.31
   0   0  16    0.84    0.31
  -1   0  16   36.32    1.24
  -1   0 -16   35.48    1.20
  -1   0  16   34.75    1.19
   1   0  16   35.01    1.20
   1   0 -16   33.10    1.20
   1   0  16   35.94    1.23
  -2   0  16    0.10    0.24
  -2   0 -16    0.44    0.29
   2   0  16    0.28    0.25
   2   0  16    0.52    0.31
  -3   0 -16    4.98    0.40
   3   0  16    4.86    0.41
   3   0  16    4.49    0.38
   4   0  16    1.03    0.37
  -4   0  16    0.64    0.37
   4   0  16    0.80    0.29
  -4   0 -16    0.81    0.34
   0   1 -16   23.33    0.89
   0  -1 -16   24.73    0.88
   0  -1  16   23.54    0.88
   0  -1  16   24.91    0.90
   0   1  16   24.05    0.91
   0   1  16   24.16    0.87
   1  -1  16    0.69    0.30
  -1   1  16    0.81    0.36
  -1   1  16    0.30    0.25
  -1  -1 -16    0.91    0.29
   1  -1  16    0.40    0.25
   1   1 -16    0.61    0.32
  -1   1  16    0.49    0.27
  -1  -1  16   -0.04    0.25
   1   1  16    0.93    0.32
   1   1  16    0.76    0.25
   1  -1 -16    0.58    0.28
  -1  -1  16    0.52    0.32
  -1   1 -16    0.62    0.31
  -2   1  16   13.17    0.55
  -2  -1 -16   12.81    0.55
   2  -1  16   12.63    0.59
   2   1 -16   12.70    0.55
  -2   1  16   12.45    0.61
   2  -1  16   12.21    0.57
   2   1  16   11.64    0.56
   2   1  16   12.72    0.60
  -2  -1  16   13.32    0.56
  -2   1 -16   13.37    0.59
  -3   1  16    3.08    0.38
   3  -1  16    3.93    0.39
   3   1 -16    2.69    0.37
   3  -1  16    3.39    0.37
  -3  -1 -16    3.86    0.37
  -3   1 -16    3.40    0.39
   3  -1 -16    3.62    0.43
   3   1  16    3.22    0.39
  -4  -1 -16    2.78    0.37
  -4   1  16    1.83    0.39
   4  -1  16    2.37    0.38
  -4   1  16    2.33    0.39
   4   1 -16    1.83    0.36
  -4  -1 -16    1.91    0.33
   4  -1  16    2.12    0.33
  -4  -1  16    2.11    0.42
  -4   1 -16    2.60    0.38
   4   1  16    2.54    0.39
   0   2  16    2.37    0.37
   0   2 -16    2.37    0.34
   0  -2  16    1.85    0.28
   0  -2 -16    1.90    0.29
  -1   2  16    2.78    0.30
  -1   2  16    2.95    0.41
   1  -2  16    2.33    0.33
  -1  -2 -16    2.12    0.30
   1  -2  16    2.69    0.35
   1   2 -16    2.59    0.37
  -1  -2  16    2.14    0.33
  -1   2 -16    2.51    0.35
   1   2  16    2.28    0.36
   1  -2 -16    2.08    0.30
  -2  -2 -16    3.91    0.34
  -2   2  16    3.75    0.42
   2   2 -16    4.20    0.36
   2  -2  16    3.94    0.37
  -2  -2 -16    3.73    0.37
   2  -2  16    3.50    0.36
  -2   2  16    4.01    0.34
   2   2  16    3.94    0.39
  -2   2 -16    3.90    0.39
  -2  -2  16    2.86    0.35
   3   2 -16    4.14    0.39
   3  -2  16    5.46    0.42
  -3  -2 -16    4.33    0.36
   3  -2  16    4.17    0.40
  -3   2  16    4.17    0.40
  -3  -2 -16    4.17    0.40
   3   2  16    4.01    0.40
  -3   2 -16    3.77    0.41
   3  -2 -16    3.77    0.46
   4   2 -16    5.68    0.45
  -4  -2 -16    6.10    0.43
  -4  -2 -16    6.81    0.45
  -4   2  16    5.80    0.46
   4  -2  16    6.45    0.45
   4  -2  16    6.84    0.47
   4   2  16    5.95    0.47
  -4  -2  16    5.81    0.50
   4  -2 -16    6.10    0.54
  -4   2 -16    6.50    0.48
   0   3 -16    3.11    0.38
   0   3  16    3.19    0.39
   0  -3 -16    3.23    0.35
   0  -3  16    3.01    0.35
  -1   3  16    6.39    0.48
  -1  -3 -16    6.31    0.42
   1  -3  16    6.32    0.42
  -1   3  16    6.24    0.37
   1   3 -16    5.74    0.44
  -1   3 -16    5.62    0.43
  -1  -3  16    6.24    0.41
   1  -3 -16    5.97    0.42
   1   3  16    6.54    0.43
   2  -3  16    2.76    0.35
  -2   3  16    2.69    0.33
  -2  -3 -16    2.30    0.35
   2  -3  16    2.06    0.32
   2   3 -16    2.59    0.34
  -2   3  16    2.53    0.41
   2   3  16    2.66    0.38
  -2   3 -16    2.84    0.38
  -2  -3  16    2.39    0.34
  -3   3  16    4.47    0.40
   3  -3  16    3.91    0.40
  -3  -3 -16    3.94    0.40
   3   3 -16    4.47    0.40
   3  -3  16    4.03    0.41
   3  -3 -16    4.09    0.47
   3   3  16    4.35    0.40
  -3   3 -16    3.81    0.42
  -4   3  16    1.41    0.38
  -4  -3 -16    1.31    0.31
   4  -3  16    1.41    0.32
   4   3 -16    0.83    0.37
   4  -3  16    1.20    0.37
   4  -3 -16    1.02    0.47
  -4   3 -16    1.55    0.41
   4   3  16    1.82    0.37
  -4  -3  16    0.73    0.42
   0   4  16   14.33    0.65
   0  -4 -16   14.23    0.61
   0   4 -16   13.24    0.63
   0  -4  16   13.77    0.62
   1  -4  16   14.21    0.63
   1   4 -16   14.48    0.65
  -1  -4 -16   14.35    0.62
  -1   4  16   14.33    0.58
  -1   4  16   15.36    0.70
  -1  -4  16   14.72    0.64
  -1   4 -16   14.71    0.66
   1   4  16   15.23    0.68
   1  -4 -16   14.37    0.63
  -2   4  16    2.23    0.42
   2  -4  16    1.23    0.31
   2   4 -16    1.74    0.34
  -2   4  16    2.08    0.33
  -2  -4 -16    2.05    0.30
  -2  -4  16    1.75    0.31
  -2   4 -16    1.87    0.38
   2   4  16    2.42    0.37
   3  -4  16    8.88    0.51
   3   4 -16    8.19    0.50
  -3   4  16    9.05    0.49
  -3  -4 -16    8.64    0.49
   3  -4 -16    8.63    0.57
   3   4  16    8.92    0.53
  -3   4 -16    8.96    0.53
  -4   4  16    0.36    0.37
   4  -4  16    0.41    0.31
   4  -4  16    0.34    0.36
   4   4 -16    0.41    0.36
  -4  -4 -16    0.79    0.32
   4   4  16    0.64    0.37
  -4  -4  16    0.82    0.43
  -4   4 -16    0.39    0.40
   4  -4 -16    0.53    0.46
   0  -5 -16   25.50    0.94
   0   5  16   25.10    0.97
   0   5 -16   24.63    0.95
   0  -5  16   25.43    0.93
   1   5 -16    0.27    0.36
  -1   5  16    1.16    0.39
  -1  -5 -16    0.84    0.30
  -1   5  16    1.21    0.29
   1  -5  16    0.59    0.31
   1   5  16    0.89    0.35
  -1   5 -16    0.18    0.35
  -1  -5  16    0.81    0.31
   1  -5 -16    0.31    0.29
   2  -5  16   13.40    0.64
   2   5 -16   14.69    0.63
  -2  -5 -16   14.49    0.64
  -2   5  16   14.12    0.69
  -2   5  16   15.60    0.62
  -2  -5  16   14.52    0.64
   2   5  16   14.33    0.68
  -2   5 -16   14.36    0.67
  -3  -5 -16   -0.05    0.30
   3   5 -16    0.13    0.35
   3  -5  16    0.18    0.30
  -3   5  16   -0.26    0.34
   3  -5 -16    0.22    0.41
  -3   5 -16    0.05    0.36
   3   5  16    0.25    0.35
   4  -5  16    3.82    0.43
  -4  -5 -16    3.17    0.41
   4   5 -16    3.19    0.44
  -4   5  16    3.37    0.43
  -4   5 -16    4.31    0.48
   4  -5 -16    3.45    0.53
   4   5  16    3.19    0.43
   0  -6 -16    0.00    0.29
   0  -6  16    0.10    0.31
   0   6  16    0.71    0.36
   0   6 -16   -0.10    0.34
  -1   6  16    9.00    0.57
  -1   6  16    9.21    0.46
   1   6 -16    8.05    0.51
   1  -6  16    7.90    0.50
  -1  -6 -16    9.11    0.51
   1  -6 -16    8.60    0.50
  -1  -6  16    8.22    0.50
   1   6  16    8.91    0.53
  -1   6 -16    8.70    0.53
   2  -6  16    3.09    0.40
  -2   6  16    2.91    0.45
   2   6 -16    3.20    0.40
  -2   6  16    3.27    0.38
  -2  -6 -16    3.36    0.39
   2   6  16    3.11    0.40
  -2   6 -16    3.04    0.42
  -2  -6  16    3.35    0.40
  -3  -6 -16    2.63    0.40
   3  -6  16    3.00    0.42
   3   6 -16    1.95    0.41
  -3   6  16    3.03    0.41
   3  -6 -16    2.79    0.48
   3   6  16    2.96    0.40
  -3   6 -16    2.58    0.42
   0   7 -16   -0.38    0.34
   0   7  16   -0.29    0.36
   0  -7  16   -0.03    0.31
   0  -7 -16   -0.15    0.31
  -1   7  16    5.60    0.50
  -1   7  16    5.11    0.39
   1   7 -16    5.26    0.46
   1  -7  16    4.95    0.44
  -1  -7 -16    5.26    0.45
   1   7  16    5.71    0.46
  -1   7 -16    5.24    0.47
   1  -7 -16    5.13    0.45
  -1  -7  16    5.53    0.45
   2   7 -16    0.64    0.37
  -2   7  16    0.71    0.34
   2  -7  16    0.45    0.34
  -2  -7 -16    0.67    0.32
   2   7  16    0.39    0.35
  -2  -7  16    0.08    0.32
  -2   7 -16    0.32    0.38
   3  -7  16    3.66    0.45
  -3  -7 -16    3.74    0.43
   3   7 -16    3.60    0.46
  -3   7  16    3.70    0.43
   3  -7 -16    3.35    0.51
  -3   7 -16    3.22    0.44
   3   7  16    3.37    0.42
   0  -8  16    8.85    0.55
   0   8  16   10.08    0.59
   0   8 -16    9.19    0.55
   0  -8 -16    9.52    0.55
  -1   8  16    4.97    0.40
   1  -8  16    3.79    0.44
   1   8 -16    4.80    0.46
  -1   8  16    4.52    0.48
  -1  -8 -16    4.48    0.45
   1  -8 -16    4.97    0.46
   1   8  16    4.16    0.46
  -1  -8  16    4.07    0.43
  -1   8 -16    4.90    0.47
  -2   8  16    3.00    0.40
   2   8 -16    3.52    0.45
  -2  -8 -16    2.40    0.39
   2  -8  16    3.24    0.43
   2  -8 -16    2.80    0.49
  -2   8 -16    2.19    0.44
  -2  -8  16    3.04    0.42
   2   8  16    3.55    0.44
   0   9 -16    6.04    0.50
   0   9  16    6.82    0.55
   0  -9 -16    5.72    0.49
   0  -9  16    4.65    0.48
  -1   9  16    6.18    0.45
   1  -9  16    4.84    0.48
  -1   9  16    5.55    0.51
   1   9 -16    5.04    0.49
  -1  -9 -16    5.92    0.49
   1  -9 -16    5.78    0.51
   1   9  16    6.21    0.51
  -1  -9  16    5.70    0.49
  -1   9 -16    5.64    0.50
   0   0  17    0.05    0.32
   0   0  17   -0.34    0.25
   0   0 -17    0.45    0.32
  -1   0  17    0.39    0.35
  -1   0 -17    0.78    0.31
   1   0 -17    1.10    0.31
   1   0  17    0.43    0.27
  -1   0  17    0.35    0.26
   1   0  17    0.63    0.32
  -2   0  17    0.73    0.27
   2   0  17    0.29    0.26
   2   0  17    0.81    0.33
  -2   0 -17    0.38    0.30
  -3   0 -17    0.04    0.33
   3   0  17   -0.04    0.27
   3   0  17    0.22    0.33
   4   0 -17    5.61    0.44
  -4   0 -17    6.05    0.46
   4   0  17    6.74    0.48
   0  -1  17   17.65    0.72
   0  -1  17   18.64    0.75
   0   1  17   18.05    0.72
   0   1 -17   17.94    0.74
   0   1  17   18.33    0.76
   0  -1 -17   17.82    0.71
  -1   1  17    1.03    0.38
   1  -1  17    0.24    0.32
  -1  -1 -17    0.13    0.30
  -1   1  17    0.43    0.26
   1  -1  17    0.46    0.27
   1   1 -17    0.42    0.32
   1  -1 -17    0.73    0.30
  -1   1 -17    0.01    0.33
   1   1  17    0.67    0.33
  -1  -1  17    0.22    0.26
   1   1  17   -0.22    0.25
  -2   1  17    7.95    0.45
  -2   1  17    7.49    0.52
   2  -1  17    8.17    0.48
  -2  -1 -17    8.29    0.45
   2  -1  17    7.61    0.47
   2   1 -17    8.19    0.45
  -2   1 -17    8.70    0.49
   2   1  17    8.78    0.51
   2   1  17    8.02    0.47
  -2  -1  17    8.57    0.46
  -3   1  17    2.65    0.38
   3  -1  17    2.42    0.34
  -3  -1 -17    2.56    0.37
   3   1 -17    1.93    0.35
  -3  -1 -17    3.26    0.38
   3  -1  17    2.94    0.40
   3   1  17    2.35    0.39
  -3   1 -17    3.12    0.41
   4  -1  17    2.20    0.41
  -4  -1 -17    2.08    0.35
   4  -1  17    2.03    0.34
  -4  -1 -17    2.40    0.38
  -4   1  17    2.57    0.42
   4   1 -17    2.19    0.38
  -4   1 -17    2.44    0.39
   4   1  17    2.61    0.41
   0  -2  17    1.30    0.30
   0  -2 -17    1.37    0.32
   0   2 -17    2.15    0.37
   0   2  17    2.06    0.37
  -1  -2 -17   34.26    1.15
  -1   2  17   35.30    1.21
   1   2 -17   29.28    1.15
   1  -2  17   32.01    1.15
  -1  -2  17   33.47    1.16
  -1   2 -17   33.35    1.18
   1   2  17   33.59    1.21
   1  -2 -17   33.24    1.16
  -2   2  17    2.17    0.41
  -2  -2 -17    1.84    0.32
   2  -2  17    1.95    0.32
   2   2 -17    2.01    0.34
  -2   2  17    2.09    0.34
   2  -2  17    2.28    0.36
  -2   2 -17    2.10    0.38
   2   2  17    2.52    0.39
  -2  -2  17    1.70    0.30
   3  -2  17   10.85    0.58
   3   2 -17   12.06    0.58
  -3   2  17   11.94    0.56
  -3  -2 -17   12.66    0.59
   3  -2  17   12.28    0.60
  -3   2 -17   12.72    0.61
   3   2  17   12.11    0.61
   3  -2 -17   11.20    0.65
   4   2 -17    3.47    0.44
  -4   2  17    3.39    0.44
   4  -2  17    3.79    0.41
  -4  -2 -17    3.87    0.42
   4  -2  17    3.64    0.42
  -4   2 -17    3.84    0.46
   4   2  17    3.77    0.43
   0  -3 -17   42.36    1.39
   0   3  17   41.18    1.43
   0   3 -17   39.85    1.40
   0  -3  17   39.34    1.38
  -1  -3 -17    5.43    0.42
   1   3 -17    4.79    0.43
  -1   3  17    5.62    0.50
   1  -3  17    5.58    0.42
  -1  -3  17    5.75    0.43
  -1   3 -17    5.51    0.46
   1   3  17    6.80    0.47
   1  -3 -17    5.31    0.43
  -2  -3 -17   15.39    0.66
   2  -3  17   14.40    0.65
  -2   3  17   15.62    0.62
   2   3 -17   14.85    0.63
  -2   3  17   13.68    0.70
   2   3  17   15.04    0.69
  -2   3 -17   14.91    0.68
  -2  -3  17   15.17    0.64
  -3   3  17   12.97    0.61
  -3  -3 -17   13.99    0.64
   3  -3  17   12.85    0.63
   3   3 -17   14.04    0.62
   3  -3  17   13.21    0.63
   3  -3 -17   13.19    0.69
   3   3  17   13.54    0.65
  -3   3 -17   13.16    0.65
   4  -3  17    4.59    0.45
  -4   3  17    4.21    0.45
   4  -3  17    4.96    0.45
   4   3 -17    4.02    0.45
  -4  -3 -17    4.34    0.42
   4   3  17    4.54    0.45
   4  -3 -17    3.85    0.55
  -4   3 -17    3.71    0.47
   0   4  17   14.62    0.67
   0  -4  17   13.44    0.62
   0  -4 -17   13.82    0.63
   0   4 -17   14.35    0.65
  -1  -4 -17    6.67    0.44
   1  -4  17    6.78    0.45
  -1   4  17    6.50    0.52
   1   4 -17    6.66    0.48
  -1  -4  17    6.76    0.45
   1  -4 -17    7.24    0.46
   1   4  17    7.68    0.51
  -1   4 -17    7.14    0.50
   2  -4  17   13.10    0.61
  -2   4  17   11.69    0.66
   2   4 -17   13.61    0.60
  -2   4  17   12.91    0.57
  -2  -4 -17   13.42    0.60
  -2  -4  17   12.60    0.60
   2   4  17   13.81    0.65
  -2   4 -17   13.22    0.64
   3   4 -17    4.16    0.44
  -3   4  17    4.71    0.42
   3  -4  17    5.20    0.44
  -3  -4 -17    4.37    0.42
   3   4  17    4.91    0.46
  -3   4 -17    4.65    0.46
   3  -4 -17    5.10    0.51
   0   5  17    0.63    0.38
   0  -5  17    0.18    0.31
   0  -5 -17    0.00    0.29
   0   5 -17    0.26    0.36
   1  -5  17    8.58    0.51
   1   5 -17    8.27    0.53
  -1  -5 -17    9.24    0.52
  -1   5  17    9.76    0.59
   1   5  17    9.79    0.57
   1  -5 -17    9.66    0.53
  -1   5 -17   10.43    0.57
  -1  -5  17    9.06    0.53
  -2  -5 -17    0.12    0.30
  -2   5  17   -0.18    0.32
  -2   5  17   -0.30    0.40
   2  -5  17    0.17    0.30
   2   5  17    0.34    0.34
  -2  -5  17   -0.12    0.30
  -2   5 -17   -0.17    0.37
   3  -5  17    6.81    0.49
  -3  -5 -17    6.82    0.47
   3   5 -17    5.84    0.49
  -3   5  17    6.82    0.47
  -3   5 -17    7.48    0.52
   3  -5 -17    6.88    0.56
   3   5  17    7.00    0.51
   0  -6 -17    3.71    0.41
   0  -6  17    3.67    0.42
   0   6 -17    3.81    0.44
   0   6  17    3.13    0.44
   1   6 -17    4.39    0.46
  -1   6  17    5.06    0.50
  -1  -6 -17    5.17    0.44
   1  -6  17    5.00    0.44
  -1  -6  17    5.42    0.44
   1   6  17    4.28    0.46
   1  -6 -17    4.84    0.44
  -1   6 -17    5.34    0.48
  -2  -6 -17    0.53    0.31
  -2   6  17    0.70    0.35
  -2   6  17    1.24    0.44
   2  -6  17    1.22    0.35
   2   6  17    1.32    0.38
  -2   6 -17    1.12    0.40
  -2  -6  17    1.14    0.34
   3  -6  17    0.47    0.35
   3   6 -17    0.77    0.40
  -3  -6 -17    0.47    0.33
  -3   6  17    1.27    0.38
   3  -6 -17    1.08    0.47
  -3   6 -17    0.69    0.40
   3   6  17    1.12    0.39
   0   7  17    7.87    0.54
   0  -7 -17    6.91    0.50
   0  -7  17    6.51    0.49
   0   7 -17    6.86    0.51
  -1  -7 -17    0.00    0.33
   1  -7  17    0.30    0.33
   1   7 -17    0.30    0.39
  -1   7  17    0.37    0.42
  -1  -7  17    0.12    0.33
   1  -7 -17   -0.05    0.34
  -1   7 -17   -0.15    0.38
   1   7  17    0.55    0.39
   2  -7  17    4.45    0.46
  -2   7  17    4.69    0.44
  -2  -7 -17    4.78    0.45
   2   7  17    4.57    0.47
  -2   7 -17    4.86    0.48
  -2  -7  17    4.83    0.45
   0   8 -17    1.26    0.42
   0  -8  17    0.98    0.37
   0  -8 -17    1.46    0.37
   0   8  17    1.86    0.45
  -1  -8 -17    1.97    0.38
   1  -8  17    1.69    0.39
   1   8 -17    1.69    0.43
  -1   8  17    2.37    0.46
  -1  -8  17    1.93    0.39
   1   8  17    2.51    0.45
   1  -8 -17    2.46    0.40
  -1   8 -17    1.98    0.43
   0   0  18    3.85    0.42
   0   0 -18    3.44    0.41
   0   0  18    4.01    0.39
   1   0 -18    3.69    0.39
   1   0  18    4.43    0.41
  -1   0  18    3.31    0.36
   1   0  18    3.29    0.37
  -1   0 -18    3.88    0.41
   2   0  18    0.71    0.30
   2   0  18    0.82    0.36
  -2   0 -18    0.75    0.33
   3   0  18    0.98    0.37
   3   0  18    0.60    0.30
   3   0 -18    0.53    0.33
  -3   0 -18    0.85    0.36
   0  -1  18    2.12    0.33
   0   1  18    2.44    0.39
   0   1  18    1.51    0.31
   0   1 -18    2.03    0.39
   1   1 -18    0.04    0.32
   1  -1  18    0.46    0.33
  -1   1  18    0.38    0.27
  -1   1  18   -0.05    0.38
   1  -1  18    0.11    0.28
   1   1  18   -0.11    0.26
  -1  -1  18    0.26    0.29
   1   1  18    0.40    0.35
  -1   1 -18    0.20    0.35
  -2   1  18    0.67    0.34
   2  -1  18    0.91    0.36
   2  -1  18    0.89    0.30
  -2   1 -18    0.59    0.35
  -2  -1  18    1.10    0.30
   2   1  18    1.51    0.38
   2   1  18    0.75    0.30
  -3   1  18    1.73    0.38
   3  -1  18    1.82    0.33
  -3  -1 -18    1.63    0.35
   3  -1  18    2.37    0.40
   3   1 -18    1.72    0.36
   3   1  18    2.39    0.41
  -3   1 -18    1.71    0.40
   0   2  18    0.22    0.37
   0  -2  18   -0.01    0.28
   0   2 -18    0.38    0.36
   0  -2 -18    0.03    0.29
   1   2 -18    1.53    0.38
  -1  -2 -18    1.75    0.33
  -1   2  18    2.14    0.43
   1  -2  18    2.48    0.36
   1  -2 -18    1.52    0.33
  -1  -2  18    1.69    0.31
   1   2  18    2.59    0.40
  -1   2 -18    1.77    0.39
  -2   2  18    3.44    0.47
   2  -2  18    4.15    0.39
  -2  -2 -18    3.82    0.40
  -2   2  18    3.51    0.39
  -2  -2  18    3.68    0.39
  -2   2 -18    3.68    0.44
   2   2  18    3.91    0.43
   3  -2  18    1.22    0.38
  -3   2  18    1.94    0.39
   3  -2  18    1.21    0.33
  -3  -2 -18    1.04    0.34
   3   2 -18    1.48    0.36
  -3   2 -18    1.35    0.40
   3   2  18    1.43    0.39
   0  -3 -18    8.38    0.50
   0   3  18    7.87    0.53
   0  -3  18    8.09    0.49
   0   3 -18    7.79    0.52
   1  -3  18    0.03    0.27
  -1   3  18    0.39    0.41
  -1  -3 -18    0.09    0.30
   1   3 -18    0.17    0.35
  -1   3 -18    0.02    0.36
  -1  -3  18    0.15    0.30
   1  -3 -18    0.26    0.31
   1   3  18    0.41    0.37
  -2   3  18    3.47    0.47
   2  -3  18    4.04    0.40
  -2  -3 -18    3.25    0.41
  -2   3  18    3.48    0.38
  -2  -3  18    3.25    0.39
  -2   3 -18    3.19    0.43
   2   3  18    3.83    0.43
   3   3 -18    4.05    0.42
   3  -3  18    5.37    0.45
  -3  -3 -18    5.20    0.45
  -3   3  18    4.94    0.44
   3  -3 -18    4.97    0.52
   3   3  18    4.64    0.46
  -3   3 -18    4.33    0.47
   0  -4 -18    0.00    0.30
   0   4  18    0.46    0.39
   0   4 -18    0.26    0.37
   0  -4  18    0.34    0.31
  -1  -4 -18    7.32    0.46
   1   4 -18    7.64    0.51
   1  -4  18    6.47    0.47
  -1   4  18    7.32    0.55
  -1   4 -18    7.66    0.53
  -1  -4  18    7.43    0.48
   1  -4 -18    7.85    0.49
   1   4  18    7.55    0.53
   2  -4  18    2.12    0.35
  -2  -4 -18    1.74    0.33
  -2   4  18    2.19    0.36
  -2   4  18    2.09    0.47
   2   4  18    3.10    0.43
  -2  -4  18    1.72    0.33
  -2   4 -18    2.16    0.42
   3  -4  18    1.91    0.35
   3   4 -18    1.62    0.40
  -3  -4 -18    2.07    0.35
  -3   4  18    2.08    0.40
   3  -4 -18    1.42    0.48
   3   4  18    1.71    0.42
  -3   4 -18    1.87    0.43
   0   5  18    4.09    0.47
   0  -5 -18    4.23    0.44
   0  -5  18    3.66    0.42
   0   5 -18    4.75    0.46
   1  -5  18    0.13    0.32
  -1   5  18    0.44    0.43
  -1  -5 -18    0.22    0.32
   1   5 -18    1.25    0.40
   1   5  18    0.66    0.39
  -1   5 -18    0.06    0.38
   1  -5 -18    0.35    0.32
  -1  -5  18    0.74    0.33
   2  -5  18    0.64    0.33
  -2  -5 -18    0.85    0.34
  -2   5  18    0.93    0.45
  -2   5  18    1.09    0.35
   2   5  18    1.16    0.39
  -2   5 -18    0.88    0.40
  -2  -5  18    1.18    0.33
   0   6 -18    0.78    0.41
   0   6  18    0.78    0.41
   0  -6  18    0.42    0.35
   0  -6 -18    0.16    0.33
   1  -6  18   -0.28    0.33
  -1  -6 -18    0.01    0.32
   1   6 -18    0.37    0.39
  -1   6  18    0.90    0.45
   1   6  18    0.06    0.37
   1  -6 -18    0.27    0.33
  -1  -6  18    0.25    0.33
  -1   6 -18    0.20    0.39
  -2  -6 -18    0.81    0.34
  -2   6  18    0.88    0.35
   2  -6  18    0.55    0.34
  -2   6  18    0.90    0.45
   2   6  18    0.62    0.39
  -2  -6  18    0.63    0.35
  -2   6 -18    0.72    0.41
   0   7 -18    2.62    0.46
   0  -7 -18    2.07    0.39
   0  -7  18    2.42    0.39
   0   7  18    2.77    0.48
  -1   7  18    3.23    0.51
   1  -7  18    3.21    0.44
   1   7 -18    2.96    0.46
  -1  -7 -18    3.24    0.45
   1  -7 -18    3.63    0.46
   1   7  18    3.47    0.47
  -1   7 -18    3.63    0.48
  -1  -7  18    3.62    0.46
   0   0  19    0.15    0.36
   0   0 -19   -0.12    0.34
   0   0  19   -0.08    0.29
   1   0  19    0.80    0.31
  -1   0 -19    0.97    0.35
   1   0  19    0.81    0.37
  -1   0  19    0.75    0.31
   2   0  19    4.33    0.44
  -2   0 -19    4.05    0.42
   2   0  19    3.74    0.40
  -3   0 -19    1.91    0.41
   3   0 -19    1.44    0.36
   0   1  19    1.53    0.40
   0   1 -19    0.88    0.39
   0  -1  19    0.48    0.31
   0   1  19    0.52    0.30
   1  -1  19   11.09    0.58
   1   1 -19   11.14    0.59
  -1   1  19   12.48    0.66
   1   1  19   11.18    0.61
   1   1  19   10.77    0.57
  -1   1 -19   11.24    0.60
  -1  -1  19   11.79    0.57
   2  -1  19    1.23    0.39
   2  -1  19    1.50    0.33
  -2   1 -19    1.72    0.40
   2   1  19    1.87    0.40
   0   2  19   28.02    1.08
   0  -2 -19   28.32    1.03
   0   2 -19   27.77    1.06
   0  -2  19   27.15    1.02
   1   2 -19    0.62    0.38
   1  -2  19    0.97    0.31
  -1   2  19    1.06    0.43
  -1  -2 -19    1.20    0.34
  -1   2 -19    0.86    0.40
   1   2  19    1.19    0.40
   1  -2 -19    1.05    0.35
  -1  -2  19    1.01    0.31
  -2  -2 -19   13.23    0.64
   2  -2  19   12.70    0.62
   2   2  19   13.52    0.68
  -2   2 -19   13.60    0.66
   0   3 -19    0.61    0.41
   0  -3  19    1.02    0.32
   0  -3 -19    0.77    0.34
   0   3  19    0.27    0.41
   1  -3  19   18.93    0.81
   1   3 -19   19.05    0.83
  -1   3  19   21.24    0.89
  -1  -3 -19   21.69    0.84
  -1  -3  19   20.22    0.81
  -1   3 -19   20.42    0.86
   1   3  19   19.57    0.87
   1  -3 -19   21.84    0.84
   2  -3  19    3.51    0.41
  -2  -3 -19    4.43    0.45
  -2   3  19    3.60    0.50
  -2   3 -19    3.95    0.46
   2   3  19    3.45    0.46
   0   4  19   10.57    0.63
   0  -4 -19   11.40    0.57
   0   4 -19   10.03    0.61
   0  -4  19   10.33    0.57
  -1   4  19    1.04    0.46
   1   4 -19    1.48    0.41
   1  -4  19    1.16    0.34
  -1  -4 -19    1.34    0.34
  -1  -4  19    1.47    0.34
   1  -4 -19    1.48    0.35
   1   4  19    1.13    0.42
  -1   4 -19    1.22    0.42
  -2  -4 -19    3.49    0.41
   2  -4  19    3.53    0.42
  -2   4  19    3.76    0.52
   2   4  19    3.68    0.45
  -2   4 -19    2.89    0.46
  -2  -4  19    4.47    0.43
   0  -5  19    0.48    0.33
   0  -5 -19   -0.02    0.33
   0   5 -19    0.10    0.41
   0   5  19    0.04    0.40
   1   5 -19   -0.03    0.40
  -1   5  19    0.39    0.44
  -1  -5 -19    0.53    0.34
   1  -5  19    0.71    0.34
   1   5  19    0.12    0.40
  -1  -5  19    0.57    0.34
   1  -5 -19    0.07    0.34
  -1   5 -19    0.64    0.41
   0   6  19    2.17    0.48
   0  -6  19    1.42    0.38
   0   6 -19    2.18    0.46
   0  -6 -19    2.02    0.38
   0   0  20    2.01    0.35
   1   0  20    8.23    0.51
  -1   0  20    7.47    0.50
   1   0  20    8.69    0.56
   2   0  20    7.39    0.53
   2   0  20    6.47    0.47
   0   1  20    4.15    0.50
   0  -1  20    4.86    0.43
   0   1 -20    3.83    0.46
   1   1 -20    2.60    0.42
   1  -1  20    3.33    0.41
  -1  -1  20    2.88    0.39
   1   1  20    2.96    0.47
   1  -1 -20    2.39    0.38
  -1   1 -20    2.95    0.44
   0   2 -20    0.59    0.40
   0  -2 -20    0.44    0.35
   0   2  20    0.45    0.43
   0  -2  20    0.60    0.32
   1  -2  20    2.77    0.42
  -1   2  20    3.24    0.51
   1   2 -20    2.44    0.44
  -1  -2 -20    3.54    0.44
   1  -2 -20    2.92    0.45
   1   2  20    3.65    0.49
  -1  -2  20    3.48    0.42
  -1   2 -20    3.55    0.47
   0   3 -20    0.02    0.42
   0  -3  20    0.11    0.32
   0  -3 -20    0.33    0.35
   0   3  20    0.31    0.42
   1   3 -20    3.37    0.47
  -1  -3 -20    3.50    0.45
  -1   3  20    3.76    0.53
   1  -3  20    3.63    0.44
  -1   3 -20    3.63    0.48
   1  -3 -20    3.34    0.44
  -1  -3  20    3.47    0.41
   1   3  20    3.58    0.49
   0  -4  20    7.79    0.52
   0  -4 -20    9.17    0.54
   0   4  20    8.58    0.61
   0   4 -20    8.03    0.59
   0   0   0    0.00    0.00
;
_shelx_hkl_checksum   47345

